<?xml version="1.0" encoding="UTF-8"?>

<routes xmlns:xsi="http://www.w3.org/2001/XMLSchema-instance" xsi:noNamespaceSchemaLocation="http://sumo.dlr.de/xsd/routes_file.xsd">
    <vType id="BUS_881" accel="2.6" decel="4.5" sigma="0" length="12" minGap="3" maxSpeed="70" color="blue"   vClass="bus" guiShape="bus"/>
	<vType id="BUS_882" accel="2.6" decel="4.5" sigma="0" length="12" minGap="3" maxSpeed="70" color="red" 	  vClass="bus" guiShape="bus"/>
	<vType id="BUS_883" accel="2.6" decel="4.5" sigma="0" length="12" minGap="3" maxSpeed="70" color="yellow" vClass="bus" guiShape="bus"/>
	<vType id="BUS_884" accel="2.6" decel="4.5" sigma="0" length="12" minGap="3" maxSpeed="70" color="green"  vClass="bus" guiShape="bus"/>
	<vType id="BUS_885" accel="2.6" decel="4.5" sigma="0" length="12" minGap="3" maxSpeed="70" color="grey"   vClass="bus" guiShape="bus"/>
	<vType id="BUS_School" accel="2.6" decel="4.5" sigma="0" length="12" minGap="3" maxSpeed="70" color="white" vClass="bus" guiShape="bus"/>    
	<vType id="BUS_Regio"  accel="2.6" decel="4.5" sigma="0" length="12" minGap="3" maxSpeed="70" color="220,20,60" vClass="bus" guiShape="bus"/>
	
	<!--Stadtbuslinie 2, viertelstündlicher- und halbstündlicher Takt-->	
	<!--Richtung Matorf-->
	<route id="882_Matorf" edges=" Gosebrede.N.7 Gosebrede.N.8 EntruperWeg.N.4 " color="red">
		<stop busStop="BusStop_Gosebrede.N" 		until="30"/>
		<stop busStop="BusStop_Slavertrift.N"		until="60"/>
	</route>
	<flow id="882_Matorf_0" type="BUS_882" route="882_Matorf" line="882_Matorf" begin="6:04:00"  end="6:30:00"  period="1800"/>
	<flow id="882_Matorf_1" type="BUS_882" route="882_Matorf" line="882_Matorf" begin="6:34:00"  end="7:30:00"  period="900"/>
	<flow id="882_Matorf_2" type="BUS_882" route="882_Matorf" line="882_Matorf" begin="7:34:00"  end="12:00:00" period="1800"/>
	<flow id="882_Matorf_3" type="BUS_882" route="882_Matorf" line="882_Matorf" begin="12:04:00" end="17:00:00" period="900"/>
	<flow id="882_Matorf_4" type="BUS_882" route="882_Matorf" line="882_Matorf" begin="17:04:00" end="19:30:00" period="1800"/>
	
	<!--Richtung Stucken-->
	<route id="882_Stucken" edges="EntruperWeg.S.7 EntruperWeg.S.8 Gosebrede.S.1" color="red">
        <stop busStop="BusStop_Slavertrift.S" 		until="30"/>
	</route>
	<flow id="882_Stucken_0" type="BUS_882" route="882_Stucken" line="882_Stucken" begin="6:02:00"  end="6:30:00"  period="1800"/>
	<flow id="882_Stucken_1" type="BUS_882" route="882_Stucken" line="882_Stucken" begin="6:32:00"  end="7:30:00"  period="900"/>
	<flow id="882_Stucken_2" type="BUS_882" route="882_Stucken" line="882_Stucken" begin="7:32:00"  end="12:00:00" period="1800"/>
	<flow id="882_Stucken_3" type="BUS_882" route="882_Stucken" line="882_Stucken" begin="12:02:00" end="17:00:00" period="900"/>
	<flow id="882_Stucken_4" type="BUS_882" route="882_Stucken" line="882_Stucken" begin="17:02:00" end="19:30:00" period="1800"/>

	<!--924____________________________________________________________________________-->
    <!--Direction Lemgo___________________-->	
	<route id="924_Lemgo_0" edges="Richard-Wagner-Strasse.W.2 Richard-Wagner-Strasse.W.6 Gosebrede.S.1" color="white">
        <!-- <stop busStop="BusStop_Luettfeld.N" 				until="60"/>	 -->
        <!-- <stop busStop="BusStop_Schloss.N" 					until="180"/> -->
        <!-- <stop busStop="BusStop_Eau-Le.N" 					until="240"/> -->
        <!-- <stop busStop="BusStop_BismarckStrasse.W" 			until="300"/> -->
		<!-- <stop busStop="BusStop_Stadtwerke.N" 				until="420"/> -->
		<!-- <stop busStop="BusStop_Richard-Wagner-Strasse.W" 	until="660"/> -->
		<stop busStop="BusStop_Richard-Wagner-Strasse.W" 	until="10"/>
		<!-- <stop busStop="BusStop_Gosebrede.S" 				until="780"/> -->
	</route>
	<flow  id="924_Lemgo_0" type="BUS_School" route="924_Lemgo_0" line="924_Lemgo_0" begin="7:12:00" end="8:12:00" period="4801"/>

<route id="924_Lemgo_1" edges="Richard-Wagner-Strasse.W.2 Richard-Wagner-Strasse.W.6 Gosebrede.S.1" color="white">
    	<stop busStop="BusStop_Richard-Wagner-Strasse.W" 	until="10"/>
    	<!-- <stop busStop="BusStop_Richard-Wagner-Strasse.W" 	until="120"/> -->
		<!-- <stop busStop="BusStop_Gosebrede.S" 				until="180"/> -->
		<!-- <stop busStop="BusStop_Rampendal" 					until="300"/> -->
		<!-- <stop busStop="BusStop_Waisenhausplatz" 			until="360"/> -->
		<!-- <stop busStop="BusStop_Papenstrasse"				until="420"/> -->
		<!-- <stop busStop="BusStop_BismarckStrasse.E" 			until="480"/>     -->
	    <!-- <stop busStop="BusStop_Eau-Le.S" 					until="510"/> -->
        <!-- <stop busStop="BusStop_Schloss.S" 					until="540"/> -->
	</route>
	<flow  id="924_Lemgo_1" type="BUS_School" route="924_Lemgo_1" line="924_Lemgo_1" begin="12:18:00" end="13:20:00" period="3060"/>
	
	<route id="925_Entrup_2" edges="Richard-Wagner-Strasse.W.2 Richard-Wagner-Strasse.W.6 EntruperWeg.N.4" color="white">
        <!-- <stop busStop="BusStop_Konsul-Wolff-Strasse.W" 		until="60"/> -->
        <!-- <stop busStop="BusStop_Richard-Wagner-Strasse.W" 	until="120"/> -->
        <stop busStop="BusStop_Richard-Wagner-Strasse.W" 	until="10"/>
		<!-- <stop busStop="BusStop_EntruperWeg.N" 				until="180"/> -->
	</route>
	<flow  id="925_Entrup_2" type="BUS_School" route="925_Entrup_2" line="925_Entrup_2" begin="13:14:00" end="14:05:00" period="4801"/>
	
	<!-- Regio and School Busses -->
	<!--Direction Talle___________________-->		
    <route id="948_Talle_0" edges="Richard-Wagner-Strasse.W.2 Richard-Wagner-Strasse.W.6 EntruperWeg.N.4 " color="white">
		<!-- <stop busStop="BusStop_Kleiststrasse.W" 			until="60"/> -->
		<!-- <stop busStop="BusStop_Richard-Wagner-Strasse.W" 	until="360"/> -->
		<stop busStop="BusStop_Richard-Wagner-Strasse.W" 	until="10"/>
		<!-- <stop busStop="BusStop_EntruperWeg.N" 				until="420"/> -->
    </route>	
	<flow  id="948_Talle_0" type="BUS_School" route="948_Talle_0" line="948_Talle_0" begin="12:24:00" end="13:24:00" period="4801"/>	
	
	<route id="948_Talle_2" edges="Richard-Wagner-Strasse.W.2 Richard-Wagner-Strasse.W.6 EntruperWeg.N.4 " color="white">
		<stop busStop="BusStop_Richard-Wagner-Strasse.W" 	until="10"/>
		<!-- <stop busStop="BusStop_Richard-Wagner-Strasse.W" 	until="300"/> -->
		<!-- <stop busStop="BusStop_EntruperWeg.N" 				until="360"/> -->
    </route>	
	<flow  id="948_Talle_2" 						type="BUS_School" route="948_Talle_2" line="948_Talle_2" begin="13:15:00" end="14:15:00" period="4801"/>	
	<flow  id="948_Talle_2_not_Tuesday_and_Friday" 	type="BUS_School" route="948_Talle_2" line="948_Talle_2" begin="15:40:00" end="16:40:00" period="4801"/>	


	<route id="733_Lemgo_School_0" edges="Richard-Wagner-Strasse.W.2 Richard-Wagner-Strasse.W.6 Gosebrede.S.1 " color="white">
		<stop busStop="BusStop_Richard-Wagner-Strasse.W"	until="10"/>
		<!-- <stop busStop="BusStop_Richard-Wagner-Strasse.W"	until="120"/> -->
		<!-- <stop busStop="BusStop_Gosebrede.S" 				until="180"/> -->
	</route>
	<flow  id="733_Lemgo_School_0_0" 	type="BUS_School"  route="733_Lemgo_School_0" line="733_Lemgo_School_0" begin="7:12:00"   end="8:12:00"   period="4801"/>
	<flow  id="733_Lemgo_School_0_1" 	type="BUS_School"  route="733_Lemgo_School_0" line="733_Lemgo_School_0" begin="7:20:00"   end="7:21:30"   period="60"/> 	
	<flow  id="733_Lemgo_School_0_2" 	type="BUS_School"  route="733_Lemgo_School_0" line="733_Lemgo_School_0" begin="7:20:00"   end="8:20:00"   period="4801"/>
	<flow  id="733_Lemgo_School_0_3" 	type="BUS_School"  route="733_Lemgo_School_0" line="733_Lemgo_School_0" begin="13:05:00"  end="15:40:00"  period="8520"/> 	
	
	<route id="921_Doerentrup_School" edges="Richard-Wagner-Strasse.W.2 Richard-Wagner-Strasse.W.6 Gosebrede.S.1" color="white">
    	<stop busStop="BusStop_Richard-Wagner-Strasse.W" 	until="10"/>
	</route>
	<flow  id="921_Doerentrup_School_0" 	type="BUS_School" route="921_Doerentrup_School" line="921_Doerentrup_School" begin="12:14:00"  end="13:30:00"   period="3060"/> 
	<flow  id="921_Doerentrup_School_1" 	type="BUS_School" route="921_Doerentrup_School" line="921_Doerentrup_School" begin="14:08:00"  end="16:00:00"   period="3600"/> 
	<flow  id="921_Doerentrup_School_2" 	type="BUS_School" route="921_Doerentrup_School" line="921_Doerentrup_School" begin="15:36:00"  end="16:36:00"   period="4801"/>

</routes>
