<routes xmlns:xsi="http://www.w3.org/2001/XMLSchema-instance" xsi:noNamespaceSchemaLocation="http://sumo.dlr.de/xsd/routes_file.xsd">
	<flow id="0" begin="15:00:00" end="15:05:00" probability="0.11400000000000002" type="car" fromTaz="3" toTaz="1" departLane="free" departSpeed="max"/>
	<flow id="1" begin="15:00:00" end="15:05:00" probability="0.009000000000000001" type="car" fromTaz="3" toTaz="2" departLane="free" departSpeed="max"/>
	<flow id="2" begin="15:00:00" end="15:05:00" probability="0.003" type="car" fromTaz="4" toTaz="1" departLane="free" departSpeed="max"/>
	<flow id="3" begin="15:00:00" end="15:05:00" probability="0.009000000000000001" type="car" fromTaz="4" toTaz="2" departLane="free" departSpeed="max"/>
	<flow id="4" begin="15:00:00" end="15:05:00" probability="0.003" type="car" fromTaz="4" toTaz="3" departLane="free" departSpeed="max"/>
	<flow id="5" begin="15:00:00" end="15:05:00" probability="0.042" type="car" fromTaz="1" toTaz="2" departLane="free" departSpeed="max"/>
	<flow id="6" begin="15:00:00" end="15:05:00" probability="0.132" type="car" fromTaz="1" toTaz="3" departLane="free" departSpeed="max"/>
	<flow id="7" begin="15:00:00" end="15:05:00" probability="0.024" type="car" fromTaz="2" toTaz="3" departLane="free" departSpeed="max"/>
	<flow id="8" begin="15:00:00" end="15:05:00" probability="0.006" type="car" fromTaz="2" toTaz="4" departLane="free" departSpeed="max"/>
	<flow id="9" begin="15:00:00" end="15:05:00" probability="0.024" type="car" fromTaz="2" toTaz="1" departLane="free" departSpeed="max"/>
	<flow id="10" begin="15:00:00" end="15:05:00" probability="0.006" type="truck" fromTaz="3" toTaz="1" departLane="free" departSpeed="max"/>
	<flow id="11" begin="15:00:00" end="15:05:00" probability="0.003" type="truck" fromTaz="1" toTaz="3" departLane="free" departSpeed="max"/>
	<flow id="12" begin="15:00:00" end="15:05:00" probability="0.003" type="trailer" fromTaz="3" toTaz="1" departLane="free" departSpeed="max"/>
	<flow id="13" begin="15:00:00" end="15:05:00" probability="0.003" type="trailer" fromTaz="3" toTaz="2" departLane="free" departSpeed="max"/>
	<flow id="14" begin="15:00:00" end="15:05:00" probability="0.003" type="trailer" fromTaz="1" toTaz="3" departLane="free" departSpeed="max"/>
	<flow id="15" begin="15:00:00" end="15:05:00" probability="0.003" type="trailer" fromTaz="2" toTaz="1" departLane="free" departSpeed="max"/>
	<flow id="16" begin="15:05:00" end="15:10:00" probability="0.129" type="car" fromTaz="3" toTaz="1" departLane="free" departSpeed="max"/>
	<flow id="17" begin="15:05:00" end="15:10:00" probability="0.012" type="car" fromTaz="3" toTaz="2" departLane="free" departSpeed="max"/>
	<flow id="18" begin="15:05:00" end="15:10:00" probability="0.006" type="car" fromTaz="4" toTaz="1" departLane="free" departSpeed="max"/>
	<flow id="19" begin="15:05:00" end="15:10:00" probability="0.021" type="car" fromTaz="4" toTaz="2" departLane="free" departSpeed="max"/>
	<flow id="20" begin="15:05:00" end="15:10:00" probability="0.015" type="car" fromTaz="4" toTaz="3" departLane="free" departSpeed="max"/>
	<flow id="21" begin="15:05:00" end="15:10:00" probability="0.066" type="car" fromTaz="1" toTaz="2" departLane="free" departSpeed="max"/>
	<flow id="22" begin="15:05:00" end="15:10:00" probability="0.168" type="car" fromTaz="1" toTaz="3" departLane="free" departSpeed="max"/>
	<flow id="23" begin="15:05:00" end="15:10:00" probability="0.003" type="car" fromTaz="1" toTaz="4" departLane="free" departSpeed="max"/>
	<flow id="24" begin="15:05:00" end="15:10:00" probability="0.036000000000000004" type="car" fromTaz="2" toTaz="3" departLane="free" departSpeed="max"/>
	<flow id="25" begin="15:05:00" end="15:10:00" probability="0.027" type="car" fromTaz="2" toTaz="1" departLane="free" departSpeed="max"/>
	<flow id="26" begin="15:05:00" end="15:10:00" probability="0.009000000000000001" type="truck" fromTaz="3" toTaz="1" departLane="free" departSpeed="max"/>
	<flow id="27" begin="15:05:00" end="15:10:00" probability="0.003" type="truck" fromTaz="1" toTaz="3" departLane="free" departSpeed="max"/>
	<flow id="28" begin="15:05:00" end="15:10:00" probability="0.003" type="trailer" fromTaz="3" toTaz="1" departLane="free" departSpeed="max"/>
	<flow id="29" begin="15:05:00" end="15:10:00" probability="0.003" type="trailer" fromTaz="2" toTaz="1" departLane="free" departSpeed="max"/>
	<flow id="30" begin="15:10:00" end="15:15:00" probability="0.147" type="car" fromTaz="3" toTaz="1" departLane="free" departSpeed="max"/>
	<flow id="31" begin="15:10:00" end="15:15:00" probability="0.018000000000000002" type="car" fromTaz="3" toTaz="2" departLane="free" departSpeed="max"/>
	<flow id="32" begin="15:10:00" end="15:15:00" probability="0.006" type="car" fromTaz="4" toTaz="1" departLane="free" departSpeed="max"/>
	<flow id="33" begin="15:10:00" end="15:15:00" probability="0.006" type="car" fromTaz="4" toTaz="3" departLane="free" departSpeed="max"/>
	<flow id="34" begin="15:10:00" end="15:15:00" probability="0.039" type="car" fromTaz="1" toTaz="2" departLane="free" departSpeed="max"/>
	<flow id="35" begin="15:10:00" end="15:15:00" probability="0.108" type="car" fromTaz="1" toTaz="3" departLane="free" departSpeed="max"/>
	<flow id="36" begin="15:10:00" end="15:15:00" probability="0.033" type="car" fromTaz="2" toTaz="3" departLane="free" departSpeed="max"/>
	<flow id="37" begin="15:10:00" end="15:15:00" probability="0.045000000000000005" type="car" fromTaz="2" toTaz="1" departLane="free" departSpeed="max"/>
	<flow id="38" begin="15:10:00" end="15:15:00" probability="0.003" type="truck" fromTaz="3" toTaz="1" departLane="free" departSpeed="max"/>
	<flow id="39" begin="15:10:00" end="15:15:00" probability="0.009000000000000001" type="truck" fromTaz="1" toTaz="3" departLane="free" departSpeed="max"/>
	<flow id="40" begin="15:10:00" end="15:15:00" probability="0.006" type="trailer" fromTaz="3" toTaz="1" departLane="free" departSpeed="max"/>
	<flow id="41" begin="15:10:00" end="15:15:00" probability="0.003" type="trailer" fromTaz="1" toTaz="3" departLane="free" departSpeed="max"/>
	<flow id="42" begin="15:10:00" end="15:15:00" probability="0.003" type="trailer" fromTaz="2" toTaz="1" departLane="free" departSpeed="max"/>
	<flow id="43" begin="15:15:00" end="15:20:00" probability="0.12600000000000003" type="car" fromTaz="3" toTaz="1" departLane="free" departSpeed="max"/>
	<flow id="44" begin="15:15:00" end="15:20:00" probability="0.039" type="car" fromTaz="3" toTaz="2" departLane="free" departSpeed="max"/>
	<flow id="45" begin="15:15:00" end="15:20:00" probability="0.018000000000000002" type="car" fromTaz="4" toTaz="1" departLane="free" departSpeed="max"/>
	<flow id="46" begin="15:15:00" end="15:20:00" probability="0.006" type="car" fromTaz="4" toTaz="2" departLane="free" departSpeed="max"/>
	<flow id="47" begin="15:15:00" end="15:20:00" probability="0.009000000000000001" type="car" fromTaz="4" toTaz="3" departLane="free" departSpeed="max"/>
	<flow id="48" begin="15:15:00" end="15:20:00" probability="0.06" type="car" fromTaz="1" toTaz="2" departLane="free" departSpeed="max"/>
	<flow id="49" begin="15:15:00" end="15:20:00" probability="0.12600000000000003" type="car" fromTaz="1" toTaz="3" departLane="free" departSpeed="max"/>
	<flow id="50" begin="15:15:00" end="15:20:00" probability="0.024" type="car" fromTaz="2" toTaz="3" departLane="free" departSpeed="max"/>
	<flow id="51" begin="15:15:00" end="15:20:00" probability="0.033" type="car" fromTaz="2" toTaz="1" departLane="free" departSpeed="max"/>
	<flow id="52" begin="15:15:00" end="15:20:00" probability="0.006" type="truck" fromTaz="3" toTaz="1" departLane="free" departSpeed="max"/>
	<flow id="53" begin="15:15:00" end="15:20:00" probability="0.003" type="truck" fromTaz="3" toTaz="2" departLane="free" departSpeed="max"/>
	<flow id="54" begin="15:15:00" end="15:20:00" probability="0.003" type="truck" fromTaz="1" toTaz="2" departLane="free" departSpeed="max"/>
	<flow id="55" begin="15:15:00" end="15:20:00" probability="0.003" type="truck" fromTaz="1" toTaz="3" departLane="free" departSpeed="max"/>
	<flow id="56" begin="15:15:00" end="15:20:00" probability="0.003" type="truck" fromTaz="2" toTaz="1" departLane="free" departSpeed="max"/>
	<flow id="57" begin="15:15:00" end="15:20:00" probability="0.003" type="trailer" fromTaz="3" toTaz="2" departLane="free" departSpeed="max"/>
	<flow id="58" begin="15:15:00" end="15:20:00" probability="0.003" type="trailer" fromTaz="1" toTaz="2" departLane="free" departSpeed="max"/>
	<flow id="59" begin="15:15:00" end="15:20:00" probability="0.003" type="trailer" fromTaz="1" toTaz="3" departLane="free" departSpeed="max"/>
	<flow id="60" begin="15:15:00" end="15:20:00" probability="0.003" type="trailer" fromTaz="2" toTaz="1" departLane="free" departSpeed="max"/>
	<flow id="61" begin="15:20:00" end="15:25:00" probability="0.003" type="car" fromTaz="3" toTaz="4" departLane="free" departSpeed="max"/>
	<flow id="62" begin="15:20:00" end="15:25:00" probability="0.111" type="car" fromTaz="3" toTaz="1" departLane="free" departSpeed="max"/>
	<flow id="63" begin="15:20:00" end="15:25:00" probability="0.033" type="car" fromTaz="3" toTaz="2" departLane="free" departSpeed="max"/>
	<flow id="64" begin="15:20:00" end="15:25:00" probability="0.018000000000000002" type="car" fromTaz="4" toTaz="1" departLane="free" departSpeed="max"/>
	<flow id="65" begin="15:20:00" end="15:25:00" probability="0.009000000000000001" type="car" fromTaz="4" toTaz="2" departLane="free" departSpeed="max"/>
	<flow id="66" begin="15:20:00" end="15:25:00" probability="0.006" type="car" fromTaz="4" toTaz="3" departLane="free" departSpeed="max"/>
	<flow id="67" begin="15:20:00" end="15:25:00" probability="0.051" type="car" fromTaz="1" toTaz="2" departLane="free" departSpeed="max"/>
	<flow id="68" begin="15:20:00" end="15:25:00" probability="0.078" type="car" fromTaz="1" toTaz="3" departLane="free" departSpeed="max"/>
	<flow id="69" begin="15:20:00" end="15:25:00" probability="0.039" type="car" fromTaz="2" toTaz="3" departLane="free" departSpeed="max"/>
	<flow id="70" begin="15:20:00" end="15:25:00" probability="0.003" type="car" fromTaz="2" toTaz="4" departLane="free" departSpeed="max"/>
	<flow id="71" begin="15:20:00" end="15:25:00" probability="0.042" type="car" fromTaz="2" toTaz="1" departLane="free" departSpeed="max"/>
	<flow id="72" begin="15:20:00" end="15:25:00" probability="0.006" type="truck" fromTaz="3" toTaz="1" departLane="free" departSpeed="max"/>
	<flow id="73" begin="15:20:00" end="15:25:00" probability="0.003" type="truck" fromTaz="1" toTaz="3" departLane="free" departSpeed="max"/>
	<flow id="74" begin="15:20:00" end="15:25:00" probability="0.003" type="truck" fromTaz="2" toTaz="1" departLane="free" departSpeed="max"/>
	<flow id="75" begin="15:20:00" end="15:25:00" probability="0.003" type="trailer" fromTaz="3" toTaz="1" departLane="free" departSpeed="max"/>
	<flow id="76" begin="15:20:00" end="15:25:00" probability="0.003" type="motorcycle" fromTaz="3" toTaz="1" departLane="free" departSpeed="max"/>
	<flow id="77" begin="15:20:00" end="15:25:00" probability="0.006" type="bicycle" fromTaz="4" toTaz="2" departLane="free" departSpeed="max"/>
	<flow id="78" begin="15:25:00" end="15:30:00" probability="0.003" type="car" fromTaz="3" toTaz="4" departLane="free" departSpeed="max"/>
	<flow id="79" begin="15:25:00" end="15:30:00" probability="0.13799999999999998" type="car" fromTaz="3" toTaz="1" departLane="free" departSpeed="max"/>
	<flow id="80" begin="15:25:00" end="15:30:00" probability="0.039" type="car" fromTaz="3" toTaz="2" departLane="free" departSpeed="max"/>
	<flow id="81" begin="15:25:00" end="15:30:00" probability="0.021" type="car" fromTaz="4" toTaz="1" departLane="free" departSpeed="max"/>
	<flow id="82" begin="15:25:00" end="15:30:00" probability="0.021" type="car" fromTaz="4" toTaz="2" departLane="free" departSpeed="max"/>
	<flow id="83" begin="15:25:00" end="15:30:00" probability="0.012" type="car" fromTaz="4" toTaz="3" departLane="free" departSpeed="max"/>
	<flow id="84" begin="15:25:00" end="15:30:00" probability="0.03" type="car" fromTaz="1" toTaz="2" departLane="free" departSpeed="max"/>
	<flow id="85" begin="15:25:00" end="15:30:00" probability="0.117" type="car" fromTaz="1" toTaz="3" departLane="free" departSpeed="max"/>
	<flow id="86" begin="15:25:00" end="15:30:00" probability="0.003" type="car" fromTaz="1" toTaz="4" departLane="free" departSpeed="max"/>
	<flow id="87" begin="15:25:00" end="15:30:00" probability="0.036000000000000004" type="car" fromTaz="2" toTaz="3" departLane="free" departSpeed="max"/>
	<flow id="88" begin="15:25:00" end="15:30:00" probability="0.039" type="car" fromTaz="2" toTaz="1" departLane="free" departSpeed="max"/>
	<flow id="89" begin="15:25:00" end="15:30:00" probability="0.009000000000000001" type="truck" fromTaz="3" toTaz="1" departLane="free" departSpeed="max"/>
	<flow id="90" begin="15:25:00" end="15:30:00" probability="0.003" type="motorcycle" fromTaz="4" toTaz="2" departLane="free" departSpeed="max"/>
	<flow id="91" begin="15:30:00" end="15:35:00" probability="0.111" type="car" fromTaz="3" toTaz="1" departLane="free" departSpeed="max"/>
	<flow id="92" begin="15:30:00" end="15:35:00" probability="0.015" type="car" fromTaz="3" toTaz="2" departLane="free" departSpeed="max"/>
	<flow id="93" begin="15:30:00" end="15:35:00" probability="0.018000000000000002" type="car" fromTaz="4" toTaz="1" departLane="free" departSpeed="max"/>
	<flow id="94" begin="15:30:00" end="15:35:00" probability="0.009000000000000001" type="car" fromTaz="4" toTaz="2" departLane="free" departSpeed="max"/>
	<flow id="95" begin="15:30:00" end="15:35:00" probability="0.006" type="car" fromTaz="4" toTaz="3" departLane="free" departSpeed="max"/>
	<flow id="96" begin="15:30:00" end="15:35:00" probability="0.051" type="car" fromTaz="1" toTaz="2" departLane="free" departSpeed="max"/>
	<flow id="97" begin="15:30:00" end="15:35:00" probability="0.096" type="car" fromTaz="1" toTaz="3" departLane="free" departSpeed="max"/>
	<flow id="98" begin="15:30:00" end="15:35:00" probability="0.06300000000000001" type="car" fromTaz="2" toTaz="3" departLane="free" departSpeed="max"/>
	<flow id="99" begin="15:30:00" end="15:35:00" probability="0.048" type="car" fromTaz="2" toTaz="1" departLane="free" departSpeed="max"/>
	<flow id="100" begin="15:30:00" end="15:35:00" probability="0.003" type="truck" fromTaz="3" toTaz="1" departLane="free" departSpeed="max"/>
	<flow id="101" begin="15:30:00" end="15:35:00" probability="0.006" type="truck" fromTaz="2" toTaz="3" departLane="free" departSpeed="max"/>
	<flow id="102" begin="15:30:00" end="15:35:00" probability="0.006" type="trailer" fromTaz="3" toTaz="1" departLane="free" departSpeed="max"/>
	<flow id="103" begin="15:30:00" end="15:35:00" probability="0.003" type="trailer" fromTaz="2" toTaz="3" departLane="free" departSpeed="max"/>
	<flow id="104" begin="15:30:00" end="15:35:00" probability="0.003" type="trailer" fromTaz="2" toTaz="1" departLane="free" departSpeed="max"/>
	<flow id="105" begin="15:30:00" end="15:35:00" probability="0.003" type="bicycle" fromTaz="4" toTaz="2" departLane="free" departSpeed="max"/>
	<flow id="106" begin="15:35:00" end="15:40:00" probability="0.13799999999999998" type="car" fromTaz="3" toTaz="1" departLane="free" departSpeed="max"/>
	<flow id="107" begin="15:35:00" end="15:40:00" probability="0.015" type="car" fromTaz="3" toTaz="2" departLane="free" departSpeed="max"/>
	<flow id="108" begin="15:35:00" end="15:40:00" probability="0.015" type="car" fromTaz="4" toTaz="1" departLane="free" departSpeed="max"/>
	<flow id="109" begin="15:35:00" end="15:40:00" probability="0.021" type="car" fromTaz="4" toTaz="2" departLane="free" departSpeed="max"/>
	<flow id="110" begin="15:35:00" end="15:40:00" probability="0.009000000000000001" type="car" fromTaz="4" toTaz="3" departLane="free" departSpeed="max"/>
	<flow id="111" begin="15:35:00" end="15:40:00" probability="0.021" type="car" fromTaz="1" toTaz="2" departLane="free" departSpeed="max"/>
	<flow id="112" begin="15:35:00" end="15:40:00" probability="0.09000000000000001" type="car" fromTaz="1" toTaz="3" departLane="free" departSpeed="max"/>
	<flow id="113" begin="15:35:00" end="15:40:00" probability="0.036000000000000004" type="car" fromTaz="2" toTaz="3" departLane="free" departSpeed="max"/>
	<flow id="114" begin="15:35:00" end="15:40:00" probability="0.003" type="car" fromTaz="2" toTaz="4" departLane="free" departSpeed="max"/>
	<flow id="115" begin="15:35:00" end="15:40:00" probability="0.06" type="car" fromTaz="2" toTaz="1" departLane="free" departSpeed="max"/>
	<flow id="116" begin="15:35:00" end="15:40:00" probability="0.003" type="truck" fromTaz="3" toTaz="1" departLane="free" departSpeed="max"/>
	<flow id="117" begin="15:35:00" end="15:40:00" probability="0.003" type="truck" fromTaz="1" toTaz="3" departLane="free" departSpeed="max"/>
	<flow id="118" begin="15:35:00" end="15:40:00" probability="0.012" type="trailer" fromTaz="3" toTaz="1" departLane="free" departSpeed="max"/>
	<flow id="119" begin="15:35:00" end="15:40:00" probability="0.003" type="trailer" fromTaz="1" toTaz="2" departLane="free" departSpeed="max"/>
	<flow id="120" begin="15:35:00" end="15:40:00" probability="0.015" type="trailer" fromTaz="1" toTaz="3" departLane="free" departSpeed="max"/>
	<flow id="121" begin="15:40:00" end="15:45:00" probability="0.003" type="car" fromTaz="3" toTaz="4" departLane="free" departSpeed="max"/>
	<flow id="122" begin="15:40:00" end="15:45:00" probability="0.096" type="car" fromTaz="3" toTaz="1" departLane="free" departSpeed="max"/>
	<flow id="123" begin="15:40:00" end="15:45:00" probability="0.024" type="car" fromTaz="3" toTaz="2" departLane="free" departSpeed="max"/>
	<flow id="124" begin="15:40:00" end="15:45:00" probability="0.021" type="car" fromTaz="4" toTaz="2" departLane="free" departSpeed="max"/>
	<flow id="125" begin="15:40:00" end="15:45:00" probability="0.009000000000000001" type="car" fromTaz="4" toTaz="3" departLane="free" departSpeed="max"/>
	<flow id="126" begin="15:40:00" end="15:45:00" probability="0.05700000000000001" type="car" fromTaz="1" toTaz="2" departLane="free" departSpeed="max"/>
	<flow id="127" begin="15:40:00" end="15:45:00" probability="0.18000000000000002" type="car" fromTaz="1" toTaz="3" departLane="free" departSpeed="max"/>
	<flow id="128" begin="15:40:00" end="15:45:00" probability="0.024" type="car" fromTaz="2" toTaz="3" departLane="free" departSpeed="max"/>
	<flow id="129" begin="15:40:00" end="15:45:00" probability="0.027" type="car" fromTaz="2" toTaz="1" departLane="free" departSpeed="max"/>
	<flow id="130" begin="15:40:00" end="15:45:00" probability="0.003" type="truck" fromTaz="1" toTaz="2" departLane="free" departSpeed="max"/>
	<flow id="131" begin="15:40:00" end="15:45:00" probability="0.003" type="truck" fromTaz="1" toTaz="3" departLane="free" departSpeed="max"/>
	<flow id="132" begin="15:40:00" end="15:45:00" probability="0.009000000000000001" type="trailer" fromTaz="3" toTaz="1" departLane="free" departSpeed="max"/>
	<flow id="133" begin="15:40:00" end="15:45:00" probability="0.003" type="trailer" fromTaz="1" toTaz="3" departLane="free" departSpeed="max"/>
	<flow id="134" begin="15:45:00" end="15:50:00" probability="0.177" type="car" fromTaz="3" toTaz="1" departLane="free" departSpeed="max"/>
	<flow id="135" begin="15:45:00" end="15:50:00" probability="0.024" type="car" fromTaz="3" toTaz="2" departLane="free" departSpeed="max"/>
	<flow id="136" begin="15:45:00" end="15:50:00" probability="0.021" type="car" fromTaz="4" toTaz="1" departLane="free" departSpeed="max"/>
	<flow id="137" begin="15:45:00" end="15:50:00" probability="0.009000000000000001" type="car" fromTaz="4" toTaz="2" departLane="free" departSpeed="max"/>
	<flow id="138" begin="15:45:00" end="15:50:00" probability="0.006" type="car" fromTaz="4" toTaz="3" departLane="free" departSpeed="max"/>
	<flow id="139" begin="15:45:00" end="15:50:00" probability="0.054" type="car" fromTaz="1" toTaz="2" departLane="free" departSpeed="max"/>
	<flow id="140" begin="15:45:00" end="15:50:00" probability="0.14100000000000001" type="car" fromTaz="1" toTaz="3" departLane="free" departSpeed="max"/>
	<flow id="141" begin="15:45:00" end="15:50:00" probability="0.006" type="car" fromTaz="1" toTaz="4" departLane="free" departSpeed="max"/>
	<flow id="142" begin="15:45:00" end="15:50:00" probability="0.018000000000000002" type="car" fromTaz="2" toTaz="3" departLane="free" departSpeed="max"/>
	<flow id="143" begin="15:45:00" end="15:50:00" probability="0.003" type="car" fromTaz="2" toTaz="4" departLane="free" departSpeed="max"/>
	<flow id="144" begin="15:45:00" end="15:50:00" probability="0.021" type="car" fromTaz="2" toTaz="1" departLane="free" departSpeed="max"/>
	<flow id="145" begin="15:45:00" end="15:50:00" probability="0.003" type="truck" fromTaz="1" toTaz="3" departLane="free" departSpeed="max"/>
	<flow id="146" begin="15:45:00" end="15:50:00" probability="0.003" type="trailer" fromTaz="3" toTaz="1" departLane="free" departSpeed="max"/>
	<flow id="147" begin="15:45:00" end="15:50:00" probability="0.006" type="trailer" fromTaz="1" toTaz="3" departLane="free" departSpeed="max"/>
	<flow id="148" begin="15:45:00" end="15:50:00" probability="0.003" type="bicycle" fromTaz="4" toTaz="2" departLane="free" departSpeed="max"/>
	<flow id="149" begin="15:50:00" end="15:55:00" probability="0.11400000000000002" type="car" fromTaz="3" toTaz="1" departLane="free" departSpeed="max"/>
	<flow id="150" begin="15:50:00" end="15:55:00" probability="0.018000000000000002" type="car" fromTaz="3" toTaz="2" departLane="free" departSpeed="max"/>
	<flow id="151" begin="15:50:00" end="15:55:00" probability="0.015" type="car" fromTaz="4" toTaz="1" departLane="free" departSpeed="max"/>
	<flow id="152" begin="15:50:00" end="15:55:00" probability="0.009000000000000001" type="car" fromTaz="4" toTaz="2" departLane="free" departSpeed="max"/>
	<flow id="153" begin="15:50:00" end="15:55:00" probability="0.003" type="car" fromTaz="4" toTaz="3" departLane="free" departSpeed="max"/>
	<flow id="154" begin="15:50:00" end="15:55:00" probability="0.039" type="car" fromTaz="1" toTaz="2" departLane="free" departSpeed="max"/>
	<flow id="155" begin="15:50:00" end="15:55:00" probability="0.13799999999999998" type="car" fromTaz="1" toTaz="3" departLane="free" departSpeed="max"/>
	<flow id="156" begin="15:50:00" end="15:55:00" probability="0.045000000000000005" type="car" fromTaz="2" toTaz="3" departLane="free" departSpeed="max"/>
	<flow id="157" begin="15:50:00" end="15:55:00" probability="0.003" type="car" fromTaz="2" toTaz="4" departLane="free" departSpeed="max"/>
	<flow id="158" begin="15:50:00" end="15:55:00" probability="0.051" type="car" fromTaz="2" toTaz="1" departLane="free" departSpeed="max"/>
	<flow id="159" begin="15:50:00" end="15:55:00" probability="0.006" type="truck" fromTaz="3" toTaz="1" departLane="free" departSpeed="max"/>
	<flow id="160" begin="15:50:00" end="15:55:00" probability="0.003" type="truck" fromTaz="4" toTaz="1" departLane="free" departSpeed="max"/>
	<flow id="161" begin="15:50:00" end="15:55:00" probability="0.003" type="trailer" fromTaz="3" toTaz="1" departLane="free" departSpeed="max"/>
	<flow id="162" begin="15:50:00" end="15:55:00" probability="0.003" type="trailer" fromTaz="1" toTaz="2" departLane="free" departSpeed="max"/>
	<flow id="163" begin="15:50:00" end="15:55:00" probability="0.003" type="trailer" fromTaz="1" toTaz="3" departLane="free" departSpeed="max"/>
	<flow id="164" begin="15:50:00" end="15:55:00" probability="0.003" type="trailer" fromTaz="2" toTaz="3" departLane="free" departSpeed="max"/>
	<flow id="165" begin="15:50:00" end="15:55:00" probability="0.003" type="trailer" fromTaz="2" toTaz="1" departLane="free" departSpeed="max"/>
	<flow id="166" begin="15:50:00" end="15:55:00" probability="0.012" type="bicycle" fromTaz="4" toTaz="2" departLane="free" departSpeed="max"/>
	<flow id="167" begin="15:55:00" end="16:00:00" probability="0.13799999999999998" type="car" fromTaz="3" toTaz="1" departLane="free" departSpeed="max"/>
	<flow id="168" begin="15:55:00" end="16:00:00" probability="0.024" type="car" fromTaz="3" toTaz="2" departLane="free" departSpeed="max"/>
	<flow id="169" begin="15:55:00" end="16:00:00" probability="0.021" type="car" fromTaz="4" toTaz="1" departLane="free" departSpeed="max"/>
	<flow id="170" begin="15:55:00" end="16:00:00" probability="0.018000000000000002" type="car" fromTaz="4" toTaz="2" departLane="free" departSpeed="max"/>
	<flow id="171" begin="15:55:00" end="16:00:00" probability="0.012" type="car" fromTaz="4" toTaz="3" departLane="free" departSpeed="max"/>
	<flow id="172" begin="15:55:00" end="16:00:00" probability="0.036000000000000004" type="car" fromTaz="1" toTaz="2" departLane="free" departSpeed="max"/>
	<flow id="173" begin="15:55:00" end="16:00:00" probability="0.14100000000000001" type="car" fromTaz="1" toTaz="3" departLane="free" departSpeed="max"/>
	<flow id="174" begin="15:55:00" end="16:00:00" probability="0.024" type="car" fromTaz="2" toTaz="3" departLane="free" departSpeed="max"/>
	<flow id="175" begin="15:55:00" end="16:00:00" probability="0.033" type="car" fromTaz="2" toTaz="1" departLane="free" departSpeed="max"/>
	<flow id="176" begin="15:55:00" end="16:00:00" probability="0.009000000000000001" type="truck" fromTaz="3" toTaz="1" departLane="free" departSpeed="max"/>
	<flow id="177" begin="15:55:00" end="16:00:00" probability="0.003" type="truck" fromTaz="2" toTaz="1" departLane="free" departSpeed="max"/>
	<flow id="178" begin="15:55:00" end="16:00:00" probability="0.006" type="trailer" fromTaz="1" toTaz="2" departLane="free" departSpeed="max"/>
	<flow id="179" begin="15:55:00" end="16:00:00" probability="0.006" type="trailer" fromTaz="1" toTaz="3" departLane="free" departSpeed="max"/>
	<flow id="180" begin="15:55:00" end="16:00:00" probability="0.003" type="motorcycle" fromTaz="3" toTaz="1" departLane="free" departSpeed="max"/>
	<flow id="181" begin="15:55:00" end="16:00:00" probability="0.003" type="motorcycle" fromTaz="4" toTaz="2" departLane="free" departSpeed="max"/>
	<flow id="182" begin="16:00:00" end="16:05:00" probability="0.14400000000000002" type="car" fromTaz="3" toTaz="1" departLane="free" departSpeed="max"/>
	<flow id="183" begin="16:00:00" end="16:05:00" probability="0.018000000000000002" type="car" fromTaz="3" toTaz="2" departLane="free" departSpeed="max"/>
	<flow id="184" begin="16:00:00" end="16:05:00" probability="0.009000000000000001" type="car" fromTaz="4" toTaz="1" departLane="free" departSpeed="max"/>
	<flow id="185" begin="16:00:00" end="16:05:00" probability="0.009000000000000001" type="car" fromTaz="4" toTaz="2" departLane="free" departSpeed="max"/>
	<flow id="186" begin="16:00:00" end="16:05:00" probability="0.003" type="car" fromTaz="4" toTaz="3" departLane="free" departSpeed="max"/>
	<flow id="187" begin="16:00:00" end="16:05:00" probability="0.054" type="car" fromTaz="1" toTaz="2" departLane="free" departSpeed="max"/>
	<flow id="188" begin="16:00:00" end="16:05:00" probability="0.14100000000000001" type="car" fromTaz="1" toTaz="3" departLane="free" departSpeed="max"/>
	<flow id="189" begin="16:00:00" end="16:05:00" probability="0.045000000000000005" type="car" fromTaz="2" toTaz="3" departLane="free" departSpeed="max"/>
	<flow id="190" begin="16:00:00" end="16:05:00" probability="0.045000000000000005" type="car" fromTaz="2" toTaz="1" departLane="free" departSpeed="max"/>
	<flow id="191" begin="16:00:00" end="16:05:00" probability="0.003" type="truck" fromTaz="3" toTaz="2" departLane="free" departSpeed="max"/>
	<flow id="192" begin="16:00:00" end="16:05:00" probability="0.003" type="truck" fromTaz="4" toTaz="1" departLane="free" departSpeed="max"/>
	<flow id="193" begin="16:00:00" end="16:05:00" probability="0.006" type="truck" fromTaz="1" toTaz="3" departLane="free" departSpeed="max"/>
	<flow id="194" begin="16:00:00" end="16:05:00" probability="0.003" type="truck" fromTaz="2" toTaz="1" departLane="free" departSpeed="max"/>
	<flow id="195" begin="16:00:00" end="16:05:00" probability="0.003" type="trailer" fromTaz="1" toTaz="3" departLane="free" departSpeed="max"/>
	<flow id="196" begin="16:00:00" end="16:05:00" probability="0.003" type="bicycle" fromTaz="4" toTaz="2" departLane="free" departSpeed="max"/>
	<flow id="197" begin="16:05:00" end="16:10:00" probability="0.111" type="car" fromTaz="3" toTaz="1" departLane="free" departSpeed="max"/>
	<flow id="198" begin="16:05:00" end="16:10:00" probability="0.033" type="car" fromTaz="3" toTaz="2" departLane="free" departSpeed="max"/>
	<flow id="199" begin="16:05:00" end="16:10:00" probability="0.009000000000000001" type="car" fromTaz="4" toTaz="1" departLane="free" departSpeed="max"/>
	<flow id="200" begin="16:05:00" end="16:10:00" probability="0.009000000000000001" type="car" fromTaz="4" toTaz="2" departLane="free" departSpeed="max"/>
	<flow id="201" begin="16:05:00" end="16:10:00" probability="0.009000000000000001" type="car" fromTaz="4" toTaz="3" departLane="free" departSpeed="max"/>
	<flow id="202" begin="16:05:00" end="16:10:00" probability="0.042" type="car" fromTaz="1" toTaz="2" departLane="free" departSpeed="max"/>
	<flow id="203" begin="16:05:00" end="16:10:00" probability="0.108" type="car" fromTaz="1" toTaz="3" departLane="free" departSpeed="max"/>
	<flow id="204" begin="16:05:00" end="16:10:00" probability="0.048" type="car" fromTaz="2" toTaz="3" departLane="free" departSpeed="max"/>
	<flow id="205" begin="16:05:00" end="16:10:00" probability="0.05700000000000001" type="car" fromTaz="2" toTaz="1" departLane="free" departSpeed="max"/>
	<flow id="206" begin="16:05:00" end="16:10:00" probability="0.006" type="truck" fromTaz="3" toTaz="1" departLane="free" departSpeed="max"/>
	<flow id="207" begin="16:05:00" end="16:10:00" probability="0.006" type="trailer" fromTaz="3" toTaz="1" departLane="free" departSpeed="max"/>