<?xml version="1.0" encoding="UTF-8"?>

<!-- generated on 02/16/21 04:29:53 by Eclipse SUMO duarouter Version 1.7.0
<configuration xmlns:xsi="http://www.w3.org/2001/XMLSchema-instance" xsi:noNamespaceSchemaLocation="http://sumo.dlr.de/xsd/duarouterConfiguration.xsd">

    <input>
        <net-file value="sumo.net.xml"/>
        <route-files value="trips.trips.xml"/>
    </input>

    <output>
        <output-file value="pedestrian_demand.rou.xml"/>
        <alternatives-output value="pedestrian_demand.rou.alt.xml"/>
    </output>

    <time>
        <begin value="54000"/>
        <end value="64800"/>
    </time>

    <report>
        <no-warnings value="true"/>
        <ignore-errors value="true"/>
        <no-step-log value="true"/>
    </report>

</configuration>
-->

<routes xmlns:xsi="http://www.w3.org/2001/XMLSchema-instance" xsi:noNamespaceSchemaLocation="http://sumo.dlr.de/xsd/routes_file.xsd">
		<!-- taz=1, from_2_to_4 and from_4_to_2 --> 
    <personFlow id="nsl" begin="54000.00" end="64800.00" probability="0.01"><walk from="Gosebrede.S.1" to="Gosebrede.N.8"/></personFlow>
    <personFlow id="snl" begin="54000.00" end="64800.00" probability="0.01"><walk from="Gosebrede.N.8" to="Gosebrede.S.1"/></personFlow>
	
		<!-- taz=2, from_1_to_3 and from_3_to_1 -->
    <personFlow id="wet" begin="15:30:00" end="15:50:00" probability="0.01"><walk from="EntruperWeg.S.8" to="EntruperWeg.N.4"/></personFlow>
    <personFlow id="ewt" begin="15:20:00" end="15:40:00" probability="0.01"><walk from="EntruperWeg.N.4" to="EntruperWeg.S.8"/></personFlow>

		<!-- taz=3, from_2_to_4 and from_4_to_2 --> 
    <personFlow id="nsr" begin="54000.00" end="64800.00" probability="0.01"><walk from="Richard-Wagner-Strasse.W.6" to="Richard-Wagner-Strasse.E.1"/></personFlow>
    <personFlow id="snr" begin="54000.00" end="64800.00" probability="0.01"><walk from="Richard-Wagner-Strasse.E.1" to="Richard-Wagner-Strasse.W.6"/></personFlow>

		<!-- taz=4, from_1_to_3 and from_3_to_1 --> 
    <personFlow id="web" begin="54000.00" end="64800.00" probability="0.01"><walk from="EntruperWeg.S.9" to="EntruperWeg.N.3"/></personFlow>
    <personFlow id="ewb" begin="54000.00" end="64800.00" probability="0.01"><walk from="EntruperWeg.N.3" to="EntruperWeg.S.9"/></personFlow>
</routes>
