<routes xmlns:xsi="http://www.w3.org/2001/XMLSchema-instance" xsi:noNamespaceSchemaLocation="http://sumo.dlr.de/xsd/routes_file.xsd">
	<personFlow id="nsl_0" begin="15:00:00" end="15:05:00" probability="0.0016666666666666668"><walk from="Gosebrede.S.1" to="Gosebrede.N.8"/></personFlow>
	<personFlow id="snl_0" begin="15:00:00" end="15:05:00" probability="0.005"><walk from="Gosebrede.N.8" to="Gosebrede.S.1"/></personFlow>
	<personFlow id="ewt_0" begin="15:00:00" end="15:05:00" probability="0.005"><walk from="EntruperWeg.N.4" to="EntruperWeg.S.8"/></personFlow>
	<personFlow id="nsr_0" begin="15:00:00" end="15:05:00" probability="0.0016666666666666668"><walk from="Richard-Wagner-Strasse.W.6" to="Richard-Wagner-Strasse.E.1"/></personFlow>
	<personFlow id="snr_0" begin="15:00:00" end="15:05:00" probability="0.005"><walk from="Richard-Wagner-Strasse.E.1" to="Richard-Wagner-Strasse.W.6"/></personFlow>
	<personFlow id="ewb_0" begin="15:00:00" end="15:05:00" probability="0.005"><walk from="EntruperWeg.N.3" to="EntruperWeg.S.9"/></personFlow>
	<personFlow id="snl_1" begin="15:05:00" end="15:10:00" probability="0.006666666666666667"><walk from="Gosebrede.N.8" to="Gosebrede.S.1"/></personFlow>
	<personFlow id="ewt_1" begin="15:05:00" end="15:10:00" probability="0.0016666666666666668"><walk from="EntruperWeg.N.4" to="EntruperWeg.S.8"/></personFlow>
	<personFlow id="snr_1" begin="15:05:00" end="15:10:00" probability="0.006666666666666667"><walk from="Richard-Wagner-Strasse.E.1" to="Richard-Wagner-Strasse.W.6"/></personFlow>
	<personFlow id="ewb_1" begin="15:05:00" end="15:10:00" probability="0.0016666666666666668"><walk from="EntruperWeg.N.3" to="EntruperWeg.S.9"/></personFlow>
	<personFlow id="nsl_2" begin="15:10:00" end="15:15:00" probability="0.0016666666666666668"><walk from="Gosebrede.S.1" to="Gosebrede.N.8"/></personFlow>
	<personFlow id="snl_2" begin="15:10:00" end="15:15:00" probability="0.008333333333333333"><walk from="Gosebrede.N.8" to="Gosebrede.S.1"/></personFlow>
	<personFlow id="ewt_2" begin="15:10:00" end="15:15:00" probability="0.005"><walk from="EntruperWeg.N.4" to="EntruperWeg.S.8"/></personFlow>
	<personFlow id="nsr_2" begin="15:10:00" end="15:15:00" probability="0.0016666666666666668"><walk from="Richard-Wagner-Strasse.W.6" to="Richard-Wagner-Strasse.E.1"/></personFlow>
	<personFlow id="snr_2" begin="15:10:00" end="15:15:00" probability="0.008333333333333333"><walk from="Richard-Wagner-Strasse.E.1" to="Richard-Wagner-Strasse.W.6"/></personFlow>
	<personFlow id="ewb_2" begin="15:10:00" end="15:15:00" probability="0.005"><walk from="EntruperWeg.N.3" to="EntruperWeg.S.9"/></personFlow>
	<personFlow id="nsl_3" begin="15:15:00" end="15:20:00" probability="0.0016666666666666668"><walk from="Gosebrede.S.1" to="Gosebrede.N.8"/></personFlow>
	<personFlow id="wet_3" begin="15:15:00" end="15:20:00" probability="0.0016666666666666668"><walk from="EntruperWeg.S.8" to="EntruperWeg.N.4"/></personFlow>
	<personFlow id="nsr_3" begin="15:15:00" end="15:20:00" probability="0.0016666666666666668"><walk from="Richard-Wagner-Strasse.W.6" to="Richard-Wagner-Strasse.E.1"/></personFlow>
	<personFlow id="web_3" begin="15:15:00" end="15:20:00" probability="0.0016666666666666668"><walk from="EntruperWeg.S.9" to="EntruperWeg.N.3"/></personFlow>
	<personFlow id="nsl_4" begin="15:20:00" end="15:25:00" probability="0.0016666666666666668"><walk from="Gosebrede.S.1" to="Gosebrede.N.8"/></personFlow>
	<personFlow id="snl_4" begin="15:20:00" end="15:25:00" probability="0.0033333333333333335"><walk from="Gosebrede.N.8" to="Gosebrede.S.1"/></personFlow>
	<personFlow id="wet_4" begin="15:20:00" end="15:25:00" probability="0.0016666666666666668"><walk from="EntruperWeg.S.8" to="EntruperWeg.N.4"/></personFlow>
	<personFlow id="nsr_4" begin="15:20:00" end="15:25:00" probability="0.0016666666666666668"><walk from="Richard-Wagner-Strasse.W.6" to="Richard-Wagner-Strasse.E.1"/></personFlow>
	<personFlow id="snr_4" begin="15:20:00" end="15:25:00" probability="0.0033333333333333335"><walk from="Richard-Wagner-Strasse.E.1" to="Richard-Wagner-Strasse.W.6"/></personFlow>
	<personFlow id="web_4" begin="15:20:00" end="15:25:00" probability="0.0016666666666666668"><walk from="EntruperWeg.S.9" to="EntruperWeg.N.3"/></personFlow>
	<personFlow id="nsl_5" begin="15:25:00" end="15:30:00" probability="0.005"><walk from="Gosebrede.S.1" to="Gosebrede.N.8"/></personFlow>
	<personFlow id="wet_5" begin="15:25:00" end="15:30:00" probability="0.0016666666666666668"><walk from="EntruperWeg.S.8" to="EntruperWeg.N.4"/></personFlow>
	<personFlow id="ewt_5" begin="15:25:00" end="15:30:00" probability="0.0033333333333333335"><walk from="EntruperWeg.N.4" to="EntruperWeg.S.8"/></personFlow>
	<personFlow id="nsr_5" begin="15:25:00" end="15:30:00" probability="0.005"><walk from="Richard-Wagner-Strasse.W.6" to="Richard-Wagner-Strasse.E.1"/></personFlow>
	<personFlow id="web_5" begin="15:25:00" end="15:30:00" probability="0.0016666666666666668"><walk from="EntruperWeg.S.9" to="EntruperWeg.N.3"/></personFlow>
	<personFlow id="ewb_5" begin="15:25:00" end="15:30:00" probability="0.0033333333333333335"><walk from="EntruperWeg.N.3" to="EntruperWeg.S.9"/></personFlow>
	<personFlow id="nsl_6" begin="15:30:00" end="15:35:00" probability="0.0016666666666666668"><walk from="Gosebrede.S.1" to="Gosebrede.N.8"/></personFlow>
	<personFlow id="snl_6" begin="15:30:00" end="15:35:00" probability="0.0033333333333333335"><walk from="Gosebrede.N.8" to="Gosebrede.S.1"/></personFlow>
	<personFlow id="ewt_6" begin="15:30:00" end="15:35:00" probability="0.0016666666666666668"><walk from="EntruperWeg.N.4" to="EntruperWeg.S.8"/></personFlow>
	<personFlow id="nsr_6" begin="15:30:00" end="15:35:00" probability="0.0016666666666666668"><walk from="Richard-Wagner-Strasse.W.6" to="Richard-Wagner-Strasse.E.1"/></personFlow>
	<personFlow id="snr_6" begin="15:30:00" end="15:35:00" probability="0.0033333333333333335"><walk from="Richard-Wagner-Strasse.E.1" to="Richard-Wagner-Strasse.W.6"/></personFlow>
	<personFlow id="ewb_6" begin="15:30:00" end="15:35:00" probability="0.0016666666666666668"><walk from="EntruperWeg.N.3" to="EntruperWeg.S.9"/></personFlow>
	<personFlow id="nsl_7" begin="15:35:00" end="15:40:00" probability="0.0016666666666666668"><walk from="Gosebrede.S.1" to="Gosebrede.N.8"/></personFlow>
	<personFlow id="snl_7" begin="15:35:00" end="15:40:00" probability="0.0033333333333333335"><walk from="Gosebrede.N.8" to="Gosebrede.S.1"/></personFlow>
	<personFlow id="wet_7" begin="15:35:00" end="15:40:00" probability="0.0033333333333333335"><walk from="EntruperWeg.S.8" to="EntruperWeg.N.4"/></personFlow>
	<personFlow id="nsr_7" begin="15:35:00" end="15:40:00" probability="0.0016666666666666668"><walk from="Richard-Wagner-Strasse.W.6" to="Richard-Wagner-Strasse.E.1"/></personFlow>
	<personFlow id="snr_7" begin="15:35:00" end="15:40:00" probability="0.0033333333333333335"><walk from="Richard-Wagner-Strasse.E.1" to="Richard-Wagner-Strasse.W.6"/></personFlow>
	<personFlow id="web_7" begin="15:35:00" end="15:40:00" probability="0.0033333333333333335"><walk from="EntruperWeg.S.9" to="EntruperWeg.N.3"/></personFlow>
	<personFlow id="nsl_8" begin="15:40:00" end="15:45:00" probability="0.0016666666666666668"><walk from="Gosebrede.S.1" to="Gosebrede.N.8"/></personFlow>
	<personFlow id="snl_8" begin="15:40:00" end="15:45:00" probability="0.0016666666666666668"><walk from="Gosebrede.N.8" to="Gosebrede.S.1"/></personFlow>
	<personFlow id="wet_8" begin="15:40:00" end="15:45:00" probability="0.0016666666666666668"><walk from="EntruperWeg.S.8" to="EntruperWeg.N.4"/></personFlow>
	<personFlow id="ewt_8" begin="15:40:00" end="15:45:00" probability="0.0033333333333333335"><walk from="EntruperWeg.N.4" to="EntruperWeg.S.8"/></personFlow>
	<personFlow id="nsr_8" begin="15:40:00" end="15:45:00" probability="0.0016666666666666668"><walk from="Richard-Wagner-Strasse.W.6" to="Richard-Wagner-Strasse.E.1"/></personFlow>
	<personFlow id="snr_8" begin="15:40:00" end="15:45:00" probability="0.0016666666666666668"><walk from="Richard-Wagner-Strasse.E.1" to="Richard-Wagner-Strasse.W.6"/></personFlow>
	<personFlow id="web_8" begin="15:40:00" end="15:45:00" probability="0.0016666666666666668"><walk from="EntruperWeg.S.9" to="EntruperWeg.N.3"/></personFlow>
	<personFlow id="ewb_8" begin="15:40:00" end="15:45:00" probability="0.0033333333333333335"><walk from="EntruperWeg.N.3" to="EntruperWeg.S.9"/></personFlow>
	<personFlow id="nsl_9" begin="15:45:00" end="15:50:00" probability="0.0033333333333333335"><walk from="Gosebrede.S.1" to="Gosebrede.N.8"/></personFlow>
	<personFlow id="ewt_9" begin="15:45:00" end="15:50:00" probability="0.0033333333333333335"><walk from="EntruperWeg.N.4" to="EntruperWeg.S.8"/></personFlow>
	<personFlow id="nsr_9" begin="15:45:00" end="15:50:00" probability="0.0033333333333333335"><walk from="Richard-Wagner-Strasse.W.6" to="Richard-Wagner-Strasse.E.1"/></personFlow>
	<personFlow id="ewb_9" begin="15:45:00" end="15:50:00" probability="0.0033333333333333335"><walk from="EntruperWeg.N.3" to="EntruperWeg.S.9"/></personFlow>
	<personFlow id="nsl_10" begin="15:50:00" end="15:55:00" probability="0.0016666666666666668"><walk from="Gosebrede.S.1" to="Gosebrede.N.8"/></personFlow>
	<personFlow id="wet_10" begin="15:50:00" end="15:55:00" probability="0.0016666666666666668"><walk from="EntruperWeg.S.8" to="EntruperWeg.N.4"/></personFlow>
	<personFlow id="nsr_10" begin="15:50:00" end="15:55:00" probability="0.0016666666666666668"><walk from="Richard-Wagner-Strasse.W.6" to="Richard-Wagner-Strasse.E.1"/></personFlow>
	<personFlow id="web_10" begin="15:50:00" end="15:55:00" probability="0.0016666666666666668"><walk from="EntruperWeg.S.9" to="EntruperWeg.N.3"/></personFlow>
	<personFlow id="nsl_11" begin="15:55:00" end="16:00:00" probability="0.0033333333333333335"><walk from="Gosebrede.S.1" to="Gosebrede.N.8"/></personFlow>
	<personFlow id="snl_11" begin="15:55:00" end="16:00:00" probability="0.0016666666666666668"><walk from="Gosebrede.N.8" to="Gosebrede.S.1"/></personFlow>
	<personFlow id="wet_11" begin="15:55:00" end="16:00:00" probability="0.0016666666666666668"><walk from="EntruperWeg.S.8" to="EntruperWeg.N.4"/></personFlow>
	<personFlow id="nsr_11" begin="15:55:00" end="16:00:00" probability="0.0033333333333333335"><walk from="Richard-Wagner-Strasse.W.6" to="Richard-Wagner-Strasse.E.1"/></personFlow>
	<personFlow id="snr_11" begin="15:55:00" end="16:00:00" probability="0.0016666666666666668"><walk from="Richard-Wagner-Strasse.E.1" to="Richard-Wagner-Strasse.W.6"/></personFlow>
	<personFlow id="web_11" begin="15:55:00" end="16:00:00" probability="0.0016666666666666668"><walk from="EntruperWeg.S.9" to="EntruperWeg.N.3"/></personFlow>
	<personFlow id="nsl_12" begin="16:00:00" end="16:05:00" probability="0.0033333333333333335"><walk from="Gosebrede.S.1" to="Gosebrede.N.8"/></personFlow>
	<personFlow id="snl_12" begin="16:00:00" end="16:05:00" probability="0.006666666666666667"><walk from="Gosebrede.N.8" to="Gosebrede.S.1"/></personFlow>
	<personFlow id="ewt_12" begin="16:00:00" end="16:05:00" probability="0.0033333333333333335"><walk from="EntruperWeg.N.4" to="EntruperWeg.S.8"/></personFlow>
	<personFlow id="nsr_12" begin="16:00:00" end="16:05:00" probability="0.0033333333333333335"><walk from="Richard-Wagner-Strasse.W.6" to="Richard-Wagner-Strasse.E.1"/></personFlow>
	<personFlow id="snr_12" begin="16:00:00" end="16:05:00" probability="0.006666666666666667"><walk from="Richard-Wagner-Strasse.E.1" to="Richard-Wagner-Strasse.W.6"/></personFlow>
	<personFlow id="ewb_12" begin="16:00:00" end="16:05:00" probability="0.0033333333333333335"><walk from="EntruperWeg.N.3" to="EntruperWeg.S.9"/></personFlow>
	<personFlow id="nsl_13" begin="16:05:00" end="16:10:00" probability="0.008333333333333333"><walk from="Gosebrede.S.1" to="Gosebrede.N.8"/></personFlow>
	<personFlow id="ewt_13" begin="16:05:00" end="16:10:00" probability="0.005"><walk from="EntruperWeg.N.4" to="EntruperWeg.S.8"/></personFlow>
	<personFlow id="nsr_13" begin="16:05:00" end="16:10:00" probability="0.008333333333333333"><walk from="Richard-Wagner-Strasse.W.6" to="Richard-Wagner-Strasse.E.1"/></personFlow>
	<personFlow id="ewb_13" begin="16:05:00" end="16:10:00" probability="0.005"><walk from="EntruperWeg.N.3" to="EntruperWeg.S.9"/></personFlow>
</routes>