<?xml version="1.0" encoding="UTF-8"?>

<!-- generated on 12.02.2021 16:53:47 by Eclipse SUMO netedit Version UNKNOWN
<configuration xmlns:xsi="http://www.w3.org/2001/XMLSchema-instance" xsi:noNamespaceSchemaLocation="http://sumo.dlr.de/xsd/netconvertConfiguration.xsd">

    <input>
        <sumo-net-file value="C:\KI4LSA\Code\sumo_files_lemgo_owl322\shrinked\sumo_shrinked12.net.xml"/>
    </input>

    <output>
        <output-file value="C:\KI4LSA\Code\sumo_files_lemgo_owl322\shrinked\sumo_shrinked12.net.xml"/>
    </output>

    <processing>
        <geometry.min-radius.fix.railways value="false"/>
        <geometry.max-grade.fix value="false"/>
        <offset.disable-normalization value="true"/>
        <lefthand value="false"/>
    </processing>

    <junctions>
        <no-internal-links value="false"/>
        <no-turnarounds value="true"/>
        <junctions.corner-detail value="5"/>
        <junctions.limit-turn-speed value="5.5"/>
        <rectangular-lane-cut value="false"/>
    </junctions>

    <pedestrian>
        <walkingareas value="false"/>
    </pedestrian>

    <report>
        <aggregate-warnings value="5"/>
    </report>

</configuration>
-->

<net version="1.6" junctionCornerDetail="5" limitTurnSpeed="5.50" xmlns:xsi="http://www.w3.org/2001/XMLSchema-instance" xsi:noNamespaceSchemaLocation="http://sumo.dlr.de/xsd/net_file.xsd">

    <location netOffset="-490613.69,-5763184.61" convBoundary="1894.78,1379.93,2422.85,1585.79" origBoundary="8.850560,52.014953,8.963454,52.044522" projParameter="+proj=utm +zone=32 +ellps=WGS84 +datum=WGS84 +units=m +no_defs"/>

    <edge id=":Bikebox_Junction_Gosebrede/Richard-Wagner-Strasse_EntruperWeg_N_0" function="internal">
        <lane id=":Bikebox_Junction_Gosebrede/Richard-Wagner-Strasse_EntruperWeg_N_0_0" index="0" allow="pedestrian" speed="8.33" length="1.10" width="2.00" shape="2087.85,1469.42,105.00 2087.87,1470.52,105.00"/>
        <lane id=":Bikebox_Junction_Gosebrede/Richard-Wagner-Strasse_EntruperWeg_N_0_1" index="1" allow="bicycle" speed="8.33" length="1.10" width="1.00" shape="2086.35,1469.41,105.00 2086.37,1470.51,105.00"/>
        <lane id=":Bikebox_Junction_Gosebrede/Richard-Wagner-Strasse_EntruperWeg_N_0_2" index="2" disallow="pedestrian bicycle tram rail_urban rail rail_electric rail_fast ship" speed="8.33" length="1.10" width="2.50" shape="2084.60,1469.40,105.00 2084.62,1470.50,105.00"/>
        <lane id=":Bikebox_Junction_Gosebrede/Richard-Wagner-Strasse_EntruperWeg_N_0_3" index="3" disallow="pedestrian bicycle tram rail_urban rail rail_electric rail_fast ship" speed="8.33" length="1.10" width="2.50" shape="2082.10,1469.39,105.00 2082.12,1470.48,105.00"/>
    </edge>
    <edge id=":Bikebox_Junction_Gosebrede/Richard-Wagner-Strasse_EntruperWeg_N_w0" function="walkingarea">
        <lane id=":Bikebox_Junction_Gosebrede/Richard-Wagner-Strasse_EntruperWeg_N_w0_0" index="0" allow="pedestrian" speed="1.00" length="1.11" width="2.00" shape="2086.87,1470.51,105.00 2088.87,1470.53,105.00 2088.85,1469.42,105.00 2086.85,1469.41,105.00"/>
    </edge>
    <edge id=":Bikebox_Junction_Gosebrede/Richard-Wagner-Strasse_EntruperWeg_S_0" function="internal">
        <lane id=":Bikebox_Junction_Gosebrede/Richard-Wagner-Strasse_EntruperWeg_S_0_0" index="0" allow="pedestrian" speed="8.33" length="0.86" width="2.00" shape="2074.58,1508.33,105.00 2074.69,1507.49,105.00"/>
        <lane id=":Bikebox_Junction_Gosebrede/Richard-Wagner-Strasse_EntruperWeg_S_0_1" index="1" allow="bicycle" speed="8.33" length="0.86" width="1.00" shape="2076.07,1508.43,105.00 2076.18,1507.58,105.00"/>
        <lane id=":Bikebox_Junction_Gosebrede/Richard-Wagner-Strasse_EntruperWeg_S_0_2" index="2" disallow="pedestrian bicycle tram rail_urban rail rail_electric rail_fast ship" speed="11.11" length="0.86" width="2.50" shape="2077.82,1508.56,105.00 2077.93,1507.70,105.00"/>
        <lane id=":Bikebox_Junction_Gosebrede/Richard-Wagner-Strasse_EntruperWeg_S_0_3" index="3" disallow="pedestrian bicycle tram rail_urban rail rail_electric rail_fast ship" speed="8.33" length="0.86" width="2.50" shape="2080.31,1508.74,105.00 2080.42,1507.86,105.00"/>
    </edge>
    <edge id=":Bikebox_Junction_Gosebrede/Richard-Wagner-Strasse_EntruperWeg_S_w0" function="walkingarea">
        <lane id=":Bikebox_Junction_Gosebrede/Richard-Wagner-Strasse_EntruperWeg_S_w0_0" index="0" allow="pedestrian" speed="1.00" length="0.85" width="2.00" shape="2075.68,1507.55,105.00 2073.69,1507.42,105.00 2073.58,1508.26,105.00 2075.58,1508.40,105.00"/>
    </edge>
    <edge id=":Fork_EntruperWeg.N_Junction_Gosebrede/Richard-Wagner-Strasse_EntruperWeg_0" function="internal">
        <lane id=":Fork_EntruperWeg.N_Junction_Gosebrede/Richard-Wagner-Strasse_EntruperWeg_0_0" index="0" allow="bicycle" speed="8.33" length="15.02" width="1.00" shape="2081.75,1423.86,106.00 2083.49,1428.15,106.00 2085.02,1431.03,106.00 2086.11,1433.98,106.00 2086.51,1438.48,106.00"/>
        <lane id=":Fork_EntruperWeg.N_Junction_Gosebrede/Richard-Wagner-Strasse_EntruperWeg_0_1" index="1" disallow="pedestrian bicycle tram rail_urban rail rail_electric rail_fast ship" speed="8.33" length="15.02" width="2.50" shape="2081.03,1424.09,106.00 2082.58,1428.28,106.00 2083.76,1431.15,106.00 2084.51,1434.08,106.00 2084.76,1438.47,106.00"/>
        <lane id=":Fork_EntruperWeg.N_Junction_Gosebrede/Richard-Wagner-Strasse_EntruperWeg_0_2" index="2" disallow="pedestrian bicycle tram rail_urban rail rail_electric rail_fast ship" speed="8.33" length="15.02" width="2.50" shape="2081.03,1424.09,106.00 2082.16,1428.22,106.00 2082.48,1431.15,106.00 2082.39,1434.14,106.00 2082.26,1438.46,106.00"/>
    </edge>
    <edge id=":Fork_EntruperWeg.N_Junction_Gosebrede/Richard-Wagner-Strasse_EntruperWeg_w0" function="walkingarea">
        <lane id=":Fork_EntruperWeg.N_Junction_Gosebrede/Richard-Wagner-Strasse_EntruperWeg_w0_0" index="0" allow="pedestrian" speed="1.00" length="15.83" width="2.00" shape="2087.01,1438.48,106.00 2089.01,1438.49,106.00 2084.13,1423.10,106.00 2082.23,1423.71,106.00 2083.40,1426.83,106.00 2084.53,1429.10,106.00 2085.52,1430.96,106.00 2086.31,1432.84,106.00 2086.83,1435.20,106.00"/>
    </edge>
    <edge id=":Fork_Gosebrede.E_Junction_Gosebrede/Richard-Wagner-Strasse_EntruperWeg_0" function="internal">
        <lane id=":Fork_Gosebrede.E_Junction_Gosebrede/Richard-Wagner-Strasse_EntruperWeg_0_0" index="0" allow="bicycle" speed="13.89" length="10.21" width="1.00" shape="2011.44,1467.03,109.00 2014.34,1467.72,109.00 2016.46,1467.66,109.00 2018.58,1467.57,109.00 2021.53,1468.15,109.00"/>
        <lane id=":Fork_Gosebrede.E_Junction_Gosebrede/Richard-Wagner-Strasse_EntruperWeg_0_1" index="1" disallow="all" speed="13.89" length="10.21" width="2.50" shape="2011.44,1467.03,109.00 2014.15,1468.36,109.00 2015.81,1469.69,109.00 2017.48,1470.98,109.00 2020.23,1472.20,109.00"/>
        <lane id=":Fork_Gosebrede.E_Junction_Gosebrede/Richard-Wagner-Strasse_EntruperWeg_0_2" index="2" disallow="pedestrian bicycle tram rail_urban rail rail_electric rail_fast ship" speed="13.89" length="10.21" width="2.50" shape="2010.83,1468.67,109.00 2013.76,1469.37,109.00 2015.89,1469.32,109.00 2018.03,1469.22,109.00 2020.99,1469.82,109.00"/>
        <lane id=":Fork_Gosebrede.E_Junction_Gosebrede/Richard-Wagner-Strasse_EntruperWeg_0_3" index="3" disallow="pedestrian bicycle tram rail_urban rail rail_electric rail_fast ship" speed="13.89" length="10.21" width="2.50" shape="2010.83,1468.67,109.00 2020.23,1472.20,109.00"/>
    </edge>
    <edge id=":Fork_Gosebrede.E_Junction_Gosebrede/Richard-Wagner-Strasse_EntruperWeg_w0" function="walkingarea">
        <lane id=":Fork_Gosebrede.E_Junction_Gosebrede/Richard-Wagner-Strasse_EntruperWeg_w0_0" index="0" allow="pedestrian" speed="1.00" length="10.10" width="2.00" shape="2021.68,1467.68,109.00 2022.30,1465.77,109.00 2012.30,1464.68,109.00 2011.61,1466.56,109.00 2013.67,1467.14,109.00 2015.26,1467.28,109.00 2016.62,1467.19,109.00 2017.99,1467.08,109.00 2019.59,1467.17,109.00"/>
    </edge>
    <edge id=":Fork_Richard-Wagner-Strasse.W_Junction_Gosebrede/Richard-Wagner-Strasse_EntruperWeg_0" function="internal">
        <lane id=":Fork_Richard-Wagner-Strasse.W_Junction_Gosebrede/Richard-Wagner-Strasse_EntruperWeg_0_0" index="0" allow="bicycle" speed="13.89" length="10.12" width="1.00" shape="2162.00,1502.70,104.00 2159.07,1502.42,104.00 2157.04,1502.64,104.00 2155.00,1502.91,104.00 2152.06,1502.80,104.00"/>
        <lane id=":Fork_Richard-Wagner-Strasse.W_Junction_Gosebrede/Richard-Wagner-Strasse_EntruperWeg_0_1" index="1" disallow="all" speed="13.89" length="10.12" width="2.50" shape="2162.00,1502.70,104.00 2159.11,1501.75,104.00 2157.30,1500.53,104.00 2155.49,1499.36,104.00 2152.58,1498.58,104.00"/>
        <lane id=":Fork_Richard-Wagner-Strasse.W_Junction_Gosebrede/Richard-Wagner-Strasse_EntruperWeg_0_2" index="2" disallow="pedestrian bicycle tram rail_urban rail rail_electric rail_fast ship" speed="13.89" length="10.12" width="2.50" shape="2162.31,1500.97,104.00 2159.36,1500.70,104.00 2157.31,1500.91,104.00 2155.25,1501.18,104.00 2152.27,1501.06,104.00"/>
        <lane id=":Fork_Richard-Wagner-Strasse.W_Junction_Gosebrede/Richard-Wagner-Strasse_EntruperWeg_0_3" index="3" disallow="pedestrian bicycle tram rail_urban rail rail_electric rail_fast ship" speed="13.89" length="10.12" width="2.50" shape="2162.31,1500.97,104.00 2152.58,1498.58,104.00"/>
    </edge>
    <edge id=":Fork_Richard-Wagner-Strasse.W_Junction_Gosebrede/Richard-Wagner-Strasse_EntruperWeg_w0" function="walkingarea">
        <lane id=":Fork_Richard-Wagner-Strasse.W_Junction_Gosebrede/Richard-Wagner-Strasse_EntruperWeg_w0_0" index="0" allow="pedestrian" speed="1.00" length="9.86" width="2.00" shape="2151.99,1503.29,104.00 2151.75,1505.28,104.00 2161.55,1505.16,104.00 2161.91,1503.19,104.00 2159.82,1502.93,104.00 2158.26,1502.96,104.00 2156.97,1503.14,104.00 2155.67,1503.34,104.00 2154.10,1503.44,104.00"/>
    </edge>
    <edge id=":Junction_Gosebrede/Richard-Wagner-Strasse_EntruperWeg_0" function="internal">
        <lane id=":Junction_Gosebrede/Richard-Wagner-Strasse_EntruperWeg_0_0" index="0" allow="bicycle" speed="8.97" length="14.98" width="1.00" shape="2101.71,1496.58,104.99 2094.59,1496.18,104.99 2089.43,1497.00,105.00 2087.22,1498.40,105.00"/>
    </edge>
    <edge id=":Junction_Gosebrede/Richard-Wagner-Strasse_EntruperWeg_1" function="internal">
        <lane id=":Junction_Gosebrede/Richard-Wagner-Strasse_EntruperWeg_1_0" index="0" allow="bicycle" speed="13.89" length="40.16" width="1.00" shape="2101.71,1496.58,104.99 2089.15,1495.26,104.99 2079.81,1494.39,104.99 2071.51,1493.11,105.00 2062.10,1490.54,105.00"/>
    </edge>
    <edge id=":Junction_Gosebrede/Richard-Wagner-Strasse_EntruperWeg_2" function="internal">
        <lane id=":Junction_Gosebrede/Richard-Wagner-Strasse_EntruperWeg_2_0" index="0" allow="bicycle" speed="11.11" length="28.00" width="2.50" shape="2101.71,1496.58,104.99 2090.15,1496.31,104.99 2086.59,1497.22,104.99 2078.61,1498.36,104.99 2076.07,1498.43,104.99 2076.21,1496.27,104.99"/>
    </edge>
    <edge id=":Junction_Gosebrede/Richard-Wagner-Strasse_EntruperWeg_3" function="internal">
        <lane id=":Junction_Gosebrede/Richard-Wagner-Strasse_EntruperWeg_3_0" index="0" disallow="pedestrian bicycle tram rail_urban rail rail_electric rail_fast ship" speed="9.85" length="19.26" width="2.50" shape="2101.91,1494.84,104.99 2093.51,1494.41,104.99 2087.44,1495.47,105.00 2083.69,1498.02,105.00 2083.64,1498.16,105.00"/>
    </edge>
    <edge id=":Junction_Gosebrede/Richard-Wagner-Strasse_EntruperWeg_4" function="internal">
        <lane id=":Junction_Gosebrede/Richard-Wagner-Strasse_EntruperWeg_4_0" index="0" disallow="pedestrian bicycle tram rail_urban rail rail_electric rail_fast ship" speed="13.89" length="39.81" width="2.50" shape="2101.91,1494.84,104.99 2089.47,1493.54,104.99 2080.23,1492.70,105.00 2072.02,1491.44,105.00 2062.65,1488.88,105.00"/>
    </edge>
    <edge id=":Junction_Gosebrede/Richard-Wagner-Strasse_EntruperWeg_5" function="internal">
        <lane id=":Junction_Gosebrede/Richard-Wagner-Strasse_EntruperWeg_5_0" index="0" disallow="pedestrian bicycle tram rail_urban rail rail_electric rail_fast ship" speed="11.11" length="7.24" width="2.50" shape="2102.20,1492.36,104.99 2095.11,1490.89,104.99"/>
    </edge>
    <edge id=":Junction_Gosebrede/Richard-Wagner-Strasse_EntruperWeg_23" function="internal">
        <lane id=":Junction_Gosebrede/Richard-Wagner-Strasse_EntruperWeg_23_0" index="0" allow="bicycle" speed="8.97" length="4.63" width="1.00" shape="2087.22,1498.40,105.00 2086.23,1499.02,105.00 2084.99,1502.26,105.00"/>
    </edge>
    <edge id=":Junction_Gosebrede/Richard-Wagner-Strasse_EntruperWeg_24" function="internal">
        <lane id=":Junction_Gosebrede/Richard-Wagner-Strasse_EntruperWeg_24_0" index="0" allow="bicycle" speed="11.11" length="20.25" width="2.50" shape="2076.21,1496.27,104.99 2076.45,1492.46,105.00 2079.30,1476.28,105.00"/>
    </edge>
    <edge id=":Junction_Gosebrede/Richard-Wagner-Strasse_EntruperWeg_25" function="internal">
        <lane id=":Junction_Gosebrede/Richard-Wagner-Strasse_EntruperWeg_25_0" index="0" disallow="pedestrian bicycle tram rail_urban rail rail_electric rail_fast ship" speed="9.85" length="4.15" width="2.50" shape="2083.64,1498.16,105.00 2082.26,1502.07,105.00"/>
    </edge>
    <edge id=":Junction_Gosebrede/Richard-Wagner-Strasse_EntruperWeg_26" function="internal">
        <lane id=":Junction_Gosebrede/Richard-Wagner-Strasse_EntruperWeg_26_0" index="0" disallow="pedestrian bicycle tram rail_urban rail rail_electric rail_fast ship" speed="11.11" length="23.36" width="2.50" shape="2095.11,1490.89,104.99 2092.21,1490.29,104.99 2085.06,1486.93,105.00 2080.76,1482.26,105.00 2079.30,1476.28,105.00"/>
    </edge>
    <edge id=":Junction_Gosebrede/Richard-Wagner-Strasse_EntruperWeg_6" function="internal">
        <lane id=":Junction_Gosebrede/Richard-Wagner-Strasse_EntruperWeg_6_0" index="0" allow="bicycle" speed="10.15" length="18.16" width="1.00" shape="2086.33,1476.24,105.00 2087.33,1480.68,105.00 2090.39,1484.12,105.00 2095.52,1486.57,105.00 2098.78,1487.23,105.00"/>
    </edge>
    <edge id=":Junction_Gosebrede/Richard-Wagner-Strasse_EntruperWeg_7" function="internal">
        <lane id=":Junction_Gosebrede/Richard-Wagner-Strasse_EntruperWeg_7_0" index="0" allow="bicycle" speed="8.33" length="26.05" width="1.00" shape="2086.33,1476.24,105.00 2084.99,1502.26,105.00"/>
    </edge>
    <edge id=":Junction_Gosebrede/Richard-Wagner-Strasse_EntruperWeg_8" function="internal">
        <lane id=":Junction_Gosebrede/Richard-Wagner-Strasse_EntruperWeg_8_0" index="0" disallow="pedestrian bicycle tram rail_urban rail rail_electric rail_fast ship" speed="10.81" length="20.72" width="2.50" shape="2084.58,1476.25,105.00 2085.67,1481.37,105.00 2089.02,1485.33,105.00 2094.63,1488.13,105.00 2098.57,1488.94,105.00"/>
    </edge>
    <edge id=":Junction_Gosebrede/Richard-Wagner-Strasse_EntruperWeg_9" function="internal">
        <lane id=":Junction_Gosebrede/Richard-Wagner-Strasse_EntruperWeg_9_0" index="0" disallow="pedestrian bicycle tram rail_urban rail rail_electric rail_fast ship" speed="11.11" length="25.92" width="2.50" shape="2084.58,1476.25,105.00 2082.26,1502.07,105.00"/>
    </edge>
    <edge id=":Junction_Gosebrede/Richard-Wagner-Strasse_EntruperWeg_10" function="internal">
        <lane id=":Junction_Gosebrede/Richard-Wagner-Strasse_EntruperWeg_10_0" index="0" allow="bicycle" speed="10.21" length="1.92" width="1.00" shape="2081.33,1476.26,105.00 2081.04,1478.16,105.00"/>
    </edge>
    <edge id=":Junction_Gosebrede/Richard-Wagner-Strasse_EntruperWeg_11" function="internal">
        <lane id=":Junction_Gosebrede/Richard-Wagner-Strasse_EntruperWeg_11_0" index="0" disallow="pedestrian bicycle tram rail_urban rail rail_electric rail_fast ship" speed="10.04" length="3.66" width="2.50" shape="2082.08,1476.27,105.00 2081.46,1479.88,105.00"/>
    </edge>
    <edge id=":Junction_Gosebrede/Richard-Wagner-Strasse_EntruperWeg_27" function="internal">
        <lane id=":Junction_Gosebrede/Richard-Wagner-Strasse_EntruperWeg_27_0" index="0" allow="bicycle" speed="10.15" length="4.01" width="1.00" shape="2098.78,1487.23,105.00 2102.71,1488.02,105.00"/>
    </edge>
    <edge id=":Junction_Gosebrede/Richard-Wagner-Strasse_EntruperWeg_28" function="internal">
        <lane id=":Junction_Gosebrede/Richard-Wagner-Strasse_EntruperWeg_28_0" index="0" disallow="pedestrian bicycle tram rail_urban rail rail_electric rail_fast ship" speed="10.81" length="4.02" width="2.50" shape="2098.57,1488.94,105.00 2102.51,1489.76,105.00"/>
    </edge>
    <edge id=":Junction_Gosebrede/Richard-Wagner-Strasse_EntruperWeg_29" function="internal">
        <lane id=":Junction_Gosebrede/Richard-Wagner-Strasse_EntruperWeg_29_0" index="0" allow="bicycle" speed="10.21" length="27.76" width="1.00" shape="2081.04,1478.16,105.00 2080.06,1484.69,105.00 2076.42,1489.95,105.00 2070.42,1491.93,105.00 2062.10,1490.54,105.00"/>
    </edge>
    <edge id=":Junction_Gosebrede/Richard-Wagner-Strasse_EntruperWeg_30" function="internal">
        <lane id=":Junction_Gosebrede/Richard-Wagner-Strasse_EntruperWeg_30_0" index="0" disallow="pedestrian bicycle tram rail_urban rail rail_electric rail_fast ship" speed="10.04" length="25.04" width="2.50" shape="2081.46,1479.88,105.00 2080.72,1484.23,105.00 2076.91,1488.90,105.00 2070.83,1490.41,105.00 2062.65,1488.88,105.00"/>
    </edge>
    <edge id=":Junction_Gosebrede/Richard-Wagner-Strasse_EntruperWeg_12" function="internal">
        <lane id=":Junction_Gosebrede/Richard-Wagner-Strasse_EntruperWeg_12_0" index="0" allow="bicycle" speed="7.95" length="14.19" width="2.50" shape="2064.86,1482.14,105.00 2070.87,1483.44,105.00 2075.16,1482.90,105.00 2077.72,1480.51,105.00 2077.76,1480.29,105.00"/>
    </edge>
    <edge id=":Junction_Gosebrede/Richard-Wagner-Strasse_EntruperWeg_13" function="internal">
        <lane id=":Junction_Gosebrede/Richard-Wagner-Strasse_EntruperWeg_13_0" index="0" allow="bicycle" speed="13.89" length="38.43" width="1.00" shape="2064.86,1482.14,105.00 2076.37,1485.30,105.00 2085.03,1486.64,105.00 2093.07,1487.20,105.00 2102.71,1488.02,105.00"/>
    </edge>
    <edge id=":Junction_Gosebrede/Richard-Wagner-Strasse_EntruperWeg_14" function="internal">
        <lane id=":Junction_Gosebrede/Richard-Wagner-Strasse_EntruperWeg_14_0" index="0" allow="bicycle" speed="11.11" length="25.00" width="1.00" shape="2064.86,1482.14,105.00 2072.58,1483.84,105.00 2077.90,1482.33,105.00 2082.62,1480.98,105.00 2086.72,1481.10,105.00 2086.75,1483.65,105.00"/>
    </edge>
    <edge id=":Junction_Gosebrede/Richard-Wagner-Strasse_EntruperWeg_15" function="internal">
        <lane id=":Junction_Gosebrede/Richard-Wagner-Strasse_EntruperWeg_15_0" index="0" disallow="pedestrian bicycle tram rail_urban rail rail_electric rail_fast ship" speed="8.58" length="16.68" width="2.50" shape="2064.32,1483.80,105.00 2070.90,1485.16,105.00 2075.59,1484.36,105.00 2078.39,1481.40,105.00 2078.59,1480.29,105.00"/>
    </edge>
    <edge id=":Junction_Gosebrede/Richard-Wagner-Strasse_EntruperWeg_16" function="internal">
        <lane id=":Junction_Gosebrede/Richard-Wagner-Strasse_EntruperWeg_16_0" index="0" disallow="pedestrian bicycle tram rail_urban rail rail_electric rail_fast ship" speed="13.89" length="38.78" width="2.50" shape="2064.32,1483.80,105.00 2075.95,1487.00,105.00 2084.72,1488.36,105.00 2092.84,1488.93,105.00 2102.51,1489.76,105.00"/>
    </edge>
    <edge id=":Junction_Gosebrede/Richard-Wagner-Strasse_EntruperWeg_17" function="internal">
        <lane id=":Junction_Gosebrede/Richard-Wagner-Strasse_EntruperWeg_17_0" index="0" disallow="pedestrian bicycle tram rail_urban rail rail_electric rail_fast ship" speed="11.85" length="7.93" width="2.50" shape="2063.53,1486.18,105.00 2070.91,1489.10,105.00"/>
    </edge>
    <edge id=":Junction_Gosebrede/Richard-Wagner-Strasse_EntruperWeg_31" function="internal">
        <lane id=":Junction_Gosebrede/Richard-Wagner-Strasse_EntruperWeg_31_0" index="0" allow="bicycle" speed="7.95" length="4.08" width="2.50" shape="2077.76,1480.29,105.00 2078.55,1476.29,105.00"/>
    </edge>
    <edge id=":Junction_Gosebrede/Richard-Wagner-Strasse_EntruperWeg_32" function="internal">
        <lane id=":Junction_Gosebrede/Richard-Wagner-Strasse_EntruperWeg_32_0" index="0" allow="bicycle" speed="11.11" length="18.69" width="1.00" shape="2086.75,1483.65,105.00 2086.75,1483.86,105.00 2085.94,1491.28,105.00 2084.99,1502.26,105.00"/>
    </edge>
    <edge id=":Junction_Gosebrede/Richard-Wagner-Strasse_EntruperWeg_33" function="internal">
        <lane id=":Junction_Gosebrede/Richard-Wagner-Strasse_EntruperWeg_33_0" index="0" disallow="pedestrian bicycle tram rail_urban rail rail_electric rail_fast ship" speed="8.58" length="4.07" width="2.50" shape="2078.59,1480.29,105.00 2079.30,1476.28,105.00"/>
    </edge>
    <edge id=":Junction_Gosebrede/Richard-Wagner-Strasse_EntruperWeg_34" function="internal">
        <lane id=":Junction_Gosebrede/Richard-Wagner-Strasse_EntruperWeg_34_0" index="0" disallow="pedestrian bicycle tram rail_urban rail rail_electric rail_fast ship" speed="11.85" length="18.25" width="2.50" shape="2070.91,1489.10,105.00 2071.93,1489.51,105.00 2077.85,1493.26,105.00 2081.29,1497.45,105.00 2082.26,1502.07,105.00"/>
    </edge>
    <edge id=":Junction_Gosebrede/Richard-Wagner-Strasse_EntruperWeg_18" function="internal">
        <lane id=":Junction_Gosebrede/Richard-Wagner-Strasse_EntruperWeg_18_0" index="0" allow="bicycle" speed="10.10" length="15.32" width="1.00" shape="2076.56,1501.68,105.00 2075.81,1498.64,105.00 2073.15,1495.77,105.00 2068.58,1493.07,105.00 2065.83,1491.99,105.00"/>
    </edge>
    <edge id=":Junction_Gosebrede/Richard-Wagner-Strasse_EntruperWeg_19" function="internal">
        <lane id=":Junction_Gosebrede/Richard-Wagner-Strasse_EntruperWeg_19_0" index="0" disallow="pedestrian bicycle tram rail_urban rail rail_electric rail_fast ship" speed="10.77" length="17.60" width="2.50" shape="2078.31,1501.80,105.00 2077.52,1498.14,105.00 2074.64,1494.76,105.00 2069.68,1491.67,105.00 2066.36,1490.35,105.00"/>
    </edge>
    <edge id=":Junction_Gosebrede/Richard-Wagner-Strasse_EntruperWeg_20" function="internal">
        <lane id=":Junction_Gosebrede/Richard-Wagner-Strasse_EntruperWeg_20_0" index="0" disallow="pedestrian tram rail_urban rail rail_electric rail_fast ship" speed="8.33" length="25.54" width="2.50" shape="2078.31,1501.80,105.00 2079.30,1476.28,105.00"/>
    </edge>
    <edge id=":Junction_Gosebrede/Richard-Wagner-Strasse_EntruperWeg_21" function="internal">
        <lane id=":Junction_Gosebrede/Richard-Wagner-Strasse_EntruperWeg_21_0" index="0" allow="bicycle" speed="11.02" length="3.01" width="1.00" shape="2081.55,1502.02,105.00 2082.27,1499.10,105.00"/>
    </edge>
    <edge id=":Junction_Gosebrede/Richard-Wagner-Strasse_EntruperWeg_22" function="internal">
        <lane id=":Junction_Gosebrede/Richard-Wagner-Strasse_EntruperWeg_22_0" index="0" disallow="pedestrian bicycle tram rail_urban rail rail_electric rail_fast ship" speed="10.88" length="0.34" width="2.50" shape="2080.80,1501.97,105.00 2080.89,1501.65,105.00"/>
    </edge>
    <edge id=":Junction_Gosebrede/Richard-Wagner-Strasse_EntruperWeg_35" function="internal">
        <lane id=":Junction_Gosebrede/Richard-Wagner-Strasse_EntruperWeg_35_0" index="0" allow="bicycle" speed="10.10" length="4.00" width="1.00" shape="2065.83,1491.99,105.00 2062.10,1490.54,105.00"/>
    </edge>
    <edge id=":Junction_Gosebrede/Richard-Wagner-Strasse_EntruperWeg_36" function="internal">
        <lane id=":Junction_Gosebrede/Richard-Wagner-Strasse_EntruperWeg_36_0" index="0" disallow="pedestrian bicycle tram rail_urban rail rail_electric rail_fast ship" speed="10.77" length="4.00" width="2.50" shape="2066.36,1490.35,105.00 2062.65,1488.88,105.00"/>
    </edge>
    <edge id=":Junction_Gosebrede/Richard-Wagner-Strasse_EntruperWeg_37" function="internal">
        <lane id=":Junction_Gosebrede/Richard-Wagner-Strasse_EntruperWeg_37_0" index="0" allow="bicycle" speed="11.02" length="26.16" width="1.00" shape="2082.27,1499.10,105.00 2083.27,1495.02,105.00 2087.37,1490.35,105.00 2093.85,1488.02,105.00 2102.71,1488.02,105.00"/>
    </edge>
    <edge id=":Junction_Gosebrede/Richard-Wagner-Strasse_EntruperWeg_38" function="internal">
        <lane id=":Junction_Gosebrede/Richard-Wagner-Strasse_EntruperWeg_38_0" index="0" disallow="pedestrian bicycle tram rail_urban rail rail_electric rail_fast ship" speed="10.88" length="28.11" width="2.50" shape="2080.89,1501.65,105.00 2082.51,1495.72,105.00 2086.70,1491.60,105.00 2093.37,1489.62,105.00 2102.51,1489.76,105.00"/>
    </edge>
    <edge id=":Junction_Gosebrede/Richard-Wagner-Strasse_EntruperWeg_c0" function="crossing" crossingEdges="Richard-Wagner-Strasse.E.1 Richard-Wagner-Strasse.W.6">
        <lane id=":Junction_Gosebrede/Richard-Wagner-Strasse_EntruperWeg_c0_0" index="0" allow="pedestrian" speed="1.00" length="9.60" width="4.00" shape="2100.78,1487.29,105.04 2099.67,1496.83,105.03"/>
    </edge>
    <edge id=":Junction_Gosebrede/Richard-Wagner-Strasse_EntruperWeg_c1" function="crossing" crossingEdges="EntruperWeg.S.9 EntruperWeg.N.3">
        <lane id=":Junction_Gosebrede/Richard-Wagner-Strasse_EntruperWeg_c1_0" index="0" allow="pedestrian" speed="1.00" length="8.75" width="4.00" shape="2078.06,1478.29,104.95 2086.82,1478.25,105.00"/>
    </edge>
    <edge id=":Junction_Gosebrede/Richard-Wagner-Strasse_EntruperWeg_c2" function="crossing" crossingEdges="Gosebrede.S.1 Gosebrede.N.8">
        <lane id=":Junction_Gosebrede/Richard-Wagner-Strasse_EntruperWeg_c2_0" index="0" allow="pedestrian" speed="1.00" length="9.85" width="4.00" shape="2063.84,1491.63,104.82 2066.91,1482.28,104.82"/>
    </edge>
    <edge id=":Junction_Gosebrede/Richard-Wagner-Strasse_EntruperWeg_c3" function="crossing" crossingEdges="EntruperWeg.N.4 EntruperWeg.S.8">
        <lane id=":Junction_Gosebrede/Richard-Wagner-Strasse_EntruperWeg_c3_0" index="0" allow="pedestrian" speed="1.00" length="9.45" width="4.00" shape="2085.62,1500.30,105.00 2076.19,1499.66,105.00"/>
    </edge>
    <edge id=":Junction_Gosebrede/Richard-Wagner-Strasse_EntruperWeg_w0" function="walkingarea">
        <lane id=":Junction_Gosebrede/Richard-Wagner-Strasse_EntruperWeg_w0_0" index="0" allow="pedestrian" speed="1.00" length="10.83" width="4.00" shape="2085.49,1502.29,105.00 2087.48,1502.43,105.00 2101.41,1499.06,104.99 2101.66,1497.08,104.99 2096.85,1496.68,104.99 2092.89,1496.79,104.99 2089.77,1497.41,105.00 2087.50,1498.53,105.00 2086.07,1500.16,105.00"/>
    </edge>
    <edge id=":Junction_Gosebrede/Richard-Wagner-Strasse_EntruperWeg_w1" function="walkingarea">
        <lane id=":Junction_Gosebrede/Richard-Wagner-Strasse_EntruperWeg_w1_0" index="0" allow="pedestrian" speed="1.00" length="12.41" width="4.00" shape="2102.77,1487.53,105.00 2103.00,1485.54,105.00 2088.83,1476.24,105.00 2086.83,1476.23,105.00 2087.25,1479.17,105.00 2088.57,1481.68,105.00 2090.78,1483.77,105.00 2093.88,1485.44,105.00 2097.88,1486.69,105.00"/>
    </edge>
    <edge id=":Junction_Gosebrede/Richard-Wagner-Strasse_EntruperWeg_w2" function="walkingarea">
        <lane id=":Junction_Gosebrede/Richard-Wagner-Strasse_EntruperWeg_w2_0" index="0" allow="pedestrian" speed="1.00" length="8.93" width="4.00" shape="2078.05,1476.29,105.00 2076.05,1476.30,105.00 2065.64,1479.77,105.00 2065.02,1481.67,105.00 2065.01,1481.65,104.82 2069.01,1482.69,105.00 2072.28,1482.95,105.00 2074.82,1482.44,105.00 2076.63,1481.16,105.00 2077.70,1479.11,105.00"/>
    </edge>
    <edge id=":Junction_Gosebrede/Richard-Wagner-Strasse_EntruperWeg_w3" function="walkingarea">
        <lane id=":Junction_Gosebrede/Richard-Wagner-Strasse_EntruperWeg_w3_0" index="0" allow="pedestrian" speed="1.00" length="11.20" width="4.00" shape="2061.94,1491.01,104.82 2061.95,1491.01,105.00 2061.32,1492.91,105.00 2074.07,1501.52,105.00 2076.07,1501.65,105.00 2075.78,1499.73,105.00 2074.66,1497.86,105.00 2072.72,1496.06,105.00 2069.96,1494.31,105.00 2066.37,1492.63,105.00"/>
    </edge>
    <edge id=":Junction_Richard-Wagner-Strasse_Mozartstrasse_c0" function="crossing" crossingEdges="Richard-Wagner-Strasse.W.2 Richard-Wagner-Strasse.E.1">
        <lane id=":Junction_Richard-Wagner-Strasse_Mozartstrasse_c0_0" index="0" allow="pedestrian" speed="1.00" length="7.07" width="4.00" shape="2424.65,1550.92,100.92 2425.91,1543.96,100.94"/>
    </edge>
    <edge id=":Junction_Richard-Wagner-Strasse_Mozartstrasse_w0" function="walkingarea">
        <lane id=":Junction_Richard-Wagner-Strasse_Mozartstrasse_w0_0" index="0" allow="pedestrian" speed="1.00" length="2.24" width="4.00" shape="2426.62,1551.28,100.92 2422.68,1550.56,100.94 2422.32,1552.53,100.94"/>
    </edge>
    <edge id=":Junction_Richard-Wagner-Strasse_Mozartstrasse_w1" function="walkingarea">
        <lane id=":Junction_Richard-Wagner-Strasse_Mozartstrasse_w1_0" index="0" allow="pedestrian" speed="1.00" length="2.24" width="4.00" shape="2424.30,1541.64,100.96 2423.95,1543.60,100.96 2427.88,1544.32,100.94"/>
    </edge>
    <edge id=":PedestrianCrossing_Gosebrede_c0" function="crossing" crossingEdges="Gosebrede.N.7 Gosebrede.S.1">
        <lane id=":PedestrianCrossing_Gosebrede_c0_0" index="0" allow="pedestrian" speed="1.00" length="6.98" width="4.00" shape="1895.60,1418.41,112.04 1892.84,1424.82,112.04"/>
    </edge>
    <edge id=":PedestrianCrossing_Gosebrede_w0" function="walkingarea">
        <lane id=":PedestrianCrossing_Gosebrede_w0_0" index="0" allow="pedestrian" speed="1.00" length="2.24" width="4.00" shape="1893.76,1417.62,112.04 1897.44,1419.20,112.00 1898.23,1417.36,112.00"/>
    </edge>
    <edge id=":PedestrianCrossing_Gosebrede_w1" function="walkingarea">
        <lane id=":PedestrianCrossing_Gosebrede_w1_0" index="0" allow="pedestrian" speed="1.00" length="2.24" width="4.00" shape="1893.88,1427.45,112.00 1894.67,1425.62,112.00 1891.00,1424.03,112.04"/>
    </edge>
