<?xml version="1.0" encoding="UTF-8"?>
<!--
Copyright 2021 Arthur Müller
arthur.mueller@iosb-ina.fraunhofer.de
This file is part of LemgoRL.

LemgoRL is free software: you can redistribute it and/or modify
it under the terms of the GNU General Public License as published by
the Free Software Foundation, either version 3 of the License, or
(at your option) any later version.

LemgoRL is distributed in the hope that it will be useful,
but WITHOUT ANY WARRANTY; without even the implied warranty of
MERCHANTABILITY or FITNESS FOR A PARTICULAR PURPOSE.  See the
GNU General Public License for more details.

You should have received a copy of the GNU General Public License
along with LemgoRL.  If not, see <http://www.gnu.org/licenses/>.
-->

<additional xmlns:xsi="http://www.w3.org/2001/XMLSchema-instance" xsi:noNamespaceSchemaLocation="http://sumo.dlr.de/xsd/additional_file.xsd">
    <busStop id="BusStop_Gosebrede.N" lane="Gosebrede.N.7_2" startPos="30.00" endPos="45.00"/>
    <busStop id="BusStop_Richard-Wagner-Strasse.W" lane="Richard-Wagner-Strasse.W.2_2" startPos="7.33" endPos="22.33"/>
    <busStop id="BusStop_Rossmann.N" lane="EntruperWeg.N.1_1" startPos="9.77" endPos="19.77"/>
    <busStop id="BusStop_Rossmann.S" lane="EntruperWeg.S.9_1" startPos="76.08" endPos="86.08"/>
    <busStop id="BusStop_Slavertrift.N" lane="EntruperWeg.N.4_2" startPos="46.00" endPos="62.00"/>
    <busStop id="BusStop_Slavertrift.S" lane="EntruperWeg.S.7_2" startPos="32.67" endPos="47.67"/>
    <busStop id="busStop_Richard-Wagner-Strasse.E" lane="Richard-Wagner-Strasse.E.1_2" startPos="308.45" endPos="318.45"/>
    <!--
    <e2Detector id="EntruperWeg.N.2_1" lane="EntruperWeg.N.2_1" pos="0.00" length="30.94" freq="60.00" file="e2output.xml"/>
    <e2Detector id="EntruperWeg.N.2_2" lane="EntruperWeg.N.2_2" pos="0.00" length="30.94" freq="60.00" file="e2output.xml" friendlyPos="1"/>
    <e2Detector id="EntruperWeg.N.2_3" lane="EntruperWeg.N.2_3" pos="0.00" length="30.94" freq="60.00" file="e2output.xml" friendlyPos="1"/>
    <e2Detector id="EntruperWeg.N.3_1" lane="EntruperWeg.N.3_1" pos="0.00" length="5.65" freq="60.00" file="e2output.xml" friendlyPos="1"/>
    <e2Detector id="EntruperWeg.N.3_2" lane="EntruperWeg.N.3_2" pos="0.00" length="5.65" freq="60.00" file="e2output.xml" friendlyPos="1"/>
    <e2Detector id="EntruperWeg.N.3_3" lane="EntruperWeg.N.3_3" pos="0.00" length="5.65" freq="60.00" file="e2output.xml" friendlyPos="1"/>
    <e2Detector id="EntruperWeg.S.7_1" lane="EntruperWeg.S.7_1" pos="15.75" length="50.00" freq="60.00" file="e2output.xml"/>
    <e2Detector id="EntruperWeg.S.7_2" lane="EntruperWeg.S.7_2" pos="15.75" length="50.00" freq="60.00" file="e2output.xml"/>
    <e2Detector id="EntruperWeg.S.7_3" lane="EntruperWeg.S.7_3" pos="15.75" length="50.00" freq="60.00" file="e2output.xml"/>
    <e2Detector id="EntruperWeg.S.8_1" lane="EntruperWeg.S.8_1" pos="0.00" length="5.81" freq="60.00" file="e2output.xml" friendlyPos="1"/>
    <e2Detector id="EntruperWeg.S.8_2" lane="EntruperWeg.S.8_2" pos="0.00" length="5.81" freq="60.00" file="e2output.xml" friendlyPos="1"/>
    <e2Detector id="EntruperWeg.S.8_3" lane="EntruperWeg.S.8_3" pos="0.00" length="5.81" freq="60.00" file="e2output.xml" friendlyPos="1"/>
    <e2Detector id="Gosebrede.N.8_1" lane="Gosebrede.N.8_1" pos="0.00" length="45.60" freq="60.00" file="e2output.xml" friendlyPos="1"/>
    <e2Detector id="Gosebrede.N.8_2" lane="Gosebrede.N.8_2" pos="0.00" length="45.60" freq="60.00" file="e2output.xml" friendlyPos="1"/>
    <e2Detector id="Gosebrede.N.8_3" lane="Gosebrede.N.8_3" pos="0.00" length="45.60" freq="60.00" file="e2output.xml" friendlyPos="1"/>
    <e2Detector id="Richard-Wagner-Strasse.W.6_1" lane="Richard-Wagner-Strasse.W.6_1" pos="0.65" length="50.00" freq="60.00" file="e2output.xml" friendlyPos="1"/>
    <e2Detector id="Richard-Wagner-Strasse.W.6_2" lane="Richard-Wagner-Strasse.W.6_2" pos="0.65" length="50.00" freq="60.00" file="e2output.xml" friendlyPos="1"/>
    <e2Detector id="Richard-Wagner-Strasse.W.6_3" lane="Richard-Wagner-Strasse.W.6_3" pos="0.65" length="50.00" freq="60.00" file="e2output.xml" friendlyPos="1"/>
    -->

    <laneAreaDetector file="e2output.xml" freq="60" friendlyPos="x" id="EntruperWeg.N.3_1" lane="EntruperWeg.N.3_1" length="5.30" pos="0" /> 
    <laneAreaDetector file="e2output.xml" freq="60" friendlyPos="x" id="EntruperWeg.N.3_2" lane="EntruperWeg.N.3_2" length="5.30" pos="0" />
    <laneAreaDetector file="e2output.xml" freq="60" friendlyPos="x" id="EntruperWeg.N.3_3" lane="EntruperWeg.N.3_3" length="5.30" pos="0" />
    <laneAreaDetector id="EntruperWeg.N.2_1" lane="EntruperWeg.N.2_1" pos="7.70" length="24.70" freq="60.00" file="e2output.xml" />
    <laneAreaDetector id="EntruperWeg.N.2_2" lane="EntruperWeg.N.2_2" pos="7.70" length="24.70" freq="60.00" file="e2output.xml" friendlyPos="1"/>
    <laneAreaDetector id="EntruperWeg.N.2_3" lane="EntruperWeg.N.2_3" pos="7.70" length="24.70" freq="60.00" file="e2output.xml" friendlyPos="1"/>
    <laneAreaDetector id="EntruperWeg.S.7_1" lane="EntruperWeg.S.7_1" pos="32.00" length="39.7" freq="60.00" file="e2output.xml"/>
    <laneAreaDetector id="EntruperWeg.S.7_2" lane="EntruperWeg.S.7_2" pos="32.00" length="39.7" freq="60.00" file="e2output.xml"/>
    <laneAreaDetector id="EntruperWeg.S.7_3" lane="EntruperWeg.S.7_3" pos="32.00" length="39.7" freq="60.00" file="e2output.xml"/>
    <laneAreaDetector file="e2output.xml" freq="60" friendlyPos="x" id="EntruperWeg.S.8_1" lane="EntruperWeg.S.8_1" length="5.3" pos="0" />
    <laneAreaDetector file="e2output.xml" freq="60" friendlyPos="x" id="EntruperWeg.S.8_2" lane="EntruperWeg.S.8_2" length="5.3" pos="0" />
    <laneAreaDetector file="e2output.xml" freq="60" friendlyPos="x" id="EntruperWeg.S.8_3" lane="EntruperWeg.S.8_3" length="5.3" pos="0" />
    <laneAreaDetector file="e2output.xml" freq="60" friendlyPos="x" id="Gosebrede.N.8_1" lane="Gosebrede.N.8_1" length="45.0" pos="0" />
    <laneAreaDetector file="e2output.xml" freq="60" friendlyPos="x" id="Gosebrede.N.8_2" lane="Gosebrede.N.8_2" length="45.0" pos="0" />
    <laneAreaDetector file="e2output.xml" freq="60" friendlyPos="x" id="Gosebrede.N.8_3" lane="Gosebrede.N.8_3" length="45.0" pos="0" />
    <laneAreaDetector file="e2output.xml" freq="60" friendlyPos="x" id="Richard-Wagner-Strasse.W.6_1" lane="Richard-Wagner-Strasse.W.6_1" length="45" pos="5.20" />
    <laneAreaDetector file="e2output.xml" freq="60" friendlyPos="x" id="Richard-Wagner-Strasse.W.6_2" lane="Richard-Wagner-Strasse.W.6_2" length="45" pos="5.20" />
    <laneAreaDetector file="e2output.xml" freq="60" friendlyPos="x" id="Richard-Wagner-Strasse.W.6_3" lane="Richard-Wagner-Strasse.W.6_3" length="45" pos="5.20" />

</additional>
