<?xml version="1.0" encoding="UTF-8"?>

<!-- generated on Fri Feb 26 12:32:53 2021 by Eclipse SUMO jtrrouter Version UNKNOWN
<configuration xmlns:xsi="http://www.w3.org/2001/XMLSchema-instance" xsi:noNamespaceSchemaLocation="http://sumo.dlr.de/xsd/jtrrouterConfiguration.xsd">

    <input>
        <net-file value="C:\KI4LSA\Code\github_repo\envs\sumo_files_owl322\sumo.net.xml"/>
        <route-files value="flows.tmp.xml"/>
        <turn-ratio-files value="turn_counts.xml"/>
    </input>

    <output>
        <output-file value="traffic_demand.rou.xml"/>
    </output>

    <processing>
        <no-internal-links value="true"/>
        <accept-all-destinations value="true"/>
        <sources-are-sinks value="true"/>
    </processing>

</configuration>
-->

<routes xmlns:xsi="http://www.w3.org/2001/XMLSchema-instance" xsi:noNamespaceSchemaLocation="http://sumo.dlr.de/xsd/routes_file.xsd">
    <vehicle id="Gosebrede.N.8.0" depart="0.00">
        <route edges="Gosebrede.N.8 EntruperWeg.N.4"/>
    </vehicle>
    <vehicle id="Gosebrede.N.8.1" depart="1.00">
        <route edges="Gosebrede.N.8 EntruperWeg.N.4"/>
    </vehicle>
    <vehicle id="Gosebrede.N.8.2" depart="2.00">
        <route edges="Gosebrede.N.8 EntruperWeg.N.4"/>
    </vehicle>
    <vehicle id="Gosebrede.N.8.3" depart="3.00">
        <route edges="Gosebrede.N.8 EntruperWeg.N.4"/>
    </vehicle>
    <vehicle id="Gosebrede.N.8.4" depart="4.00">
        <route edges="Gosebrede.N.8 EntruperWeg.N.4"/>
    </vehicle>
    <vehicle id="Gosebrede.N.8.5" depart="5.00">
        <route edges="Gosebrede.N.8 EntruperWeg.N.4"/>
    </vehicle>
    <vehicle id="Gosebrede.N.8.6" depart="6.00">
        <route edges="Gosebrede.N.8 EntruperWeg.N.4"/>
    </vehicle>
    <vehicle id="Gosebrede.N.8.7" depart="7.00">
        <route edges="Gosebrede.N.8 EntruperWeg.N.4"/>
    </vehicle>
    <vehicle id="Gosebrede.N.8.8" depart="8.00">
        <route edges="Gosebrede.N.8 EntruperWeg.N.4"/>
    </vehicle>
    <vehicle id="Gosebrede.N.8.9" depart="9.00">
        <route edges="Gosebrede.N.8 EntruperWeg.N.4"/>
    </vehicle>
    <vehicle id="Gosebrede.N.8.10" depart="10.00">
        <route edges="Gosebrede.N.8 EntruperWeg.N.4"/>
    </vehicle>
    <vehicle id="Gosebrede.N.8.11" depart="11.00">
        <route edges="Gosebrede.N.8 EntruperWeg.N.4"/>
    </vehicle>
    <vehicle id="Gosebrede.N.8.12" depart="12.00">
        <route edges="Gosebrede.N.8 EntruperWeg.N.4"/>
    </vehicle>
    <vehicle id="Gosebrede.N.8.13" depart="13.00">
        <route edges="Gosebrede.N.8 EntruperWeg.N.4"/>
    </vehicle>
    <vehicle id="Gosebrede.N.8.14" depart="14.00">
        <route edges="Gosebrede.N.8 EntruperWeg.N.4"/>
    </vehicle>
    <vehicle id="Gosebrede.N.8.15" depart="15.00">
        <route edges="Gosebrede.N.8 EntruperWeg.N.4"/>
    </vehicle>
    <vehicle id="Gosebrede.N.8.16" depart="16.00">
        <route edges="Gosebrede.N.8 EntruperWeg.N.4"/>
    </vehicle>
    <vehicle id="Gosebrede.N.8.17" depart="17.00">
        <route edges="Gosebrede.N.8 EntruperWeg.N.4"/>
    </vehicle>
    <vehicle id="Gosebrede.N.8.18" depart="18.00">
        <route edges="Gosebrede.N.8 EntruperWeg.N.4"/>
    </vehicle>
    <vehicle id="Gosebrede.N.8.19" depart="19.00">
        <route edges="Gosebrede.N.8 EntruperWeg.N.4"/>
    </vehicle>
    <vehicle id="Gosebrede.N.8.20" depart="20.00">
        <route edges="Gosebrede.N.8 EntruperWeg.N.4"/>
    </vehicle>
    <vehicle id="Gosebrede.N.8.21" depart="21.00">
        <route edges="Gosebrede.N.8 EntruperWeg.N.4"/>
    </vehicle>
    <vehicle id="Gosebrede.N.8.22" depart="22.00">
        <route edges="Gosebrede.N.8 EntruperWeg.N.4"/>
    </vehicle>
    <vehicle id="Gosebrede.N.8.23" depart="23.00">
        <route edges="Gosebrede.N.8 EntruperWeg.N.4"/>
    </vehicle>
    <vehicle id="Gosebrede.N.8.24" depart="24.00">
        <route edges="Gosebrede.N.8 EntruperWeg.N.4"/>
    </vehicle>
    <vehicle id="Gosebrede.N.8.25" depart="25.00">
        <route edges="Gosebrede.N.8 EntruperWeg.N.4"/>
    </vehicle>
    <vehicle id="Gosebrede.N.8.26" depart="26.00">
        <route edges="Gosebrede.N.8 EntruperWeg.N.4"/>
    </vehicle>
    <vehicle id="Gosebrede.N.8.27" depart="27.00">
        <route edges="Gosebrede.N.8 EntruperWeg.N.4"/>
    </vehicle>
    <vehicle id="Gosebrede.N.8.28" depart="28.00">
        <route edges="Gosebrede.N.8 EntruperWeg.N.4"/>
    </vehicle>
    <vehicle id="Gosebrede.N.8.29" depart="29.00">
        <route edges="Gosebrede.N.8 EntruperWeg.N.4"/>
    </vehicle>
    <vehicle id="Gosebrede.N.8.30" depart="30.00">
        <route edges="Gosebrede.N.8 EntruperWeg.N.4"/>
    </vehicle>
    <vehicle id="Gosebrede.N.8.31" depart="31.00">
        <route edges="Gosebrede.N.8 EntruperWeg.N.4"/>
    </vehicle>
    <vehicle id="Gosebrede.N.8.32" depart="32.00">
        <route edges="Gosebrede.N.8 EntruperWeg.N.4"/>
    </vehicle>
    <vehicle id="Gosebrede.N.8.33" depart="33.00">
        <route edges="Gosebrede.N.8 EntruperWeg.N.4"/>
    </vehicle>
    <vehicle id="Gosebrede.N.8.34" depart="34.00">
        <route edges="Gosebrede.N.8 EntruperWeg.N.4"/>
    </vehicle>
    <vehicle id="Gosebrede.N.8.35" depart="35.00">
        <route edges="Gosebrede.N.8 EntruperWeg.N.4"/>
    </vehicle>
    <vehicle id="Gosebrede.N.8.36" depart="36.00">
        <route edges="Gosebrede.N.8 EntruperWeg.N.4"/>
    </vehicle>
    <vehicle id="Gosebrede.N.8.37" depart="37.00">
        <route edges="Gosebrede.N.8 EntruperWeg.N.4"/>
    </vehicle>
    <vehicle id="Gosebrede.N.8.38" depart="38.00">
        <route edges="Gosebrede.N.8 EntruperWeg.N.4"/>
    </vehicle>
    <vehicle id="Gosebrede.N.8.39" depart="39.00">
        <route edges="Gosebrede.N.8 EntruperWeg.N.4"/>
    </vehicle>
    <vehicle id="Gosebrede.N.8.40" depart="40.00">
        <route edges="Gosebrede.N.8 EntruperWeg.N.4"/>
    </vehicle>
    <vehicle id="Gosebrede.N.8.41" depart="41.00">
        <route edges="Gosebrede.N.8 EntruperWeg.N.4"/>
    </vehicle>
    <vehicle id="Gosebrede.N.8.42" depart="42.00">
        <route edges="Gosebrede.N.8 EntruperWeg.N.4"/>
    </vehicle>
    <vehicle id="Gosebrede.N.8.43" depart="43.00">
        <route edges="Gosebrede.N.8 EntruperWeg.N.4"/>
    </vehicle>
    <vehicle id="Gosebrede.N.8.44" depart="44.00">
        <route edges="Gosebrede.N.8 EntruperWeg.N.4"/>
    </vehicle>
    <vehicle id="Gosebrede.N.8.45" depart="45.00">
        <route edges="Gosebrede.N.8 EntruperWeg.N.4"/>
    </vehicle>
    <vehicle id="Gosebrede.N.8.46" depart="46.00">
        <route edges="Gosebrede.N.8 EntruperWeg.N.4"/>
    </vehicle>
    <vehicle id="Gosebrede.N.8.47" depart="47.00">
        <route edges="Gosebrede.N.8 EntruperWeg.N.4"/>
    </vehicle>
    <vehicle id="Gosebrede.N.8.48" depart="48.00">
        <route edges="Gosebrede.N.8 EntruperWeg.N.4"/>
    </vehicle>
    <vehicle id="Gosebrede.N.8.49" depart="49.00">
        <route edges="Gosebrede.N.8 EntruperWeg.N.4"/>
    </vehicle>
    <vehicle id="Gosebrede.N.8.50" depart="50.00">
        <route edges="Gosebrede.N.8 EntruperWeg.N.4"/>
    </vehicle>
    <vehicle id="Gosebrede.N.8.51" depart="51.00">
        <route edges="Gosebrede.N.8 EntruperWeg.N.4"/>
    </vehicle>
    <vehicle id="Gosebrede.N.8.52" depart="52.00">
        <route edges="Gosebrede.N.8 EntruperWeg.N.4"/>
    </vehicle>
    <vehicle id="Gosebrede.N.8.53" depart="53.00">
        <route edges="Gosebrede.N.8 EntruperWeg.N.4"/>
    </vehicle>
    <vehicle id="Gosebrede.N.8.54" depart="54.00">
        <route edges="Gosebrede.N.8 EntruperWeg.N.4"/>
    </vehicle>
    <vehicle id="Gosebrede.N.8.55" depart="55.00">
        <route edges="Gosebrede.N.8 EntruperWeg.N.4"/>
    </vehicle>
    <vehicle id="Gosebrede.N.8.56" depart="56.00">
        <route edges="Gosebrede.N.8 EntruperWeg.N.4"/>
    </vehicle>
    <vehicle id="Gosebrede.N.8.57" depart="57.00">
        <route edges="Gosebrede.N.8 EntruperWeg.N.4"/>
    </vehicle>
    <vehicle id="Gosebrede.N.8.58" depart="58.00">
        <route edges="Gosebrede.N.8 EntruperWeg.N.4"/>
    </vehicle>
    <vehicle id="Gosebrede.N.8.59" depart="59.00">
        <route edges="Gosebrede.N.8 EntruperWeg.N.4"/>
    </vehicle>
    <vehicle id="Gosebrede.N.8.60" depart="60.00">
        <route edges="Gosebrede.N.8 EntruperWeg.N.4"/>
    </vehicle>
    <vehicle id="Gosebrede.N.8.61" depart="61.00">
        <route edges="Gosebrede.N.8 EntruperWeg.N.4"/>
    </vehicle>
    <vehicle id="Gosebrede.N.8.62" depart="62.00">
        <route edges="Gosebrede.N.8 EntruperWeg.N.4"/>
    </vehicle>
    <vehicle id="Gosebrede.N.8.63" depart="63.00">
        <route edges="Gosebrede.N.8 EntruperWeg.N.4"/>
    </vehicle>
    <vehicle id="Gosebrede.N.8.64" depart="64.00">
        <route edges="Gosebrede.N.8 EntruperWeg.N.4"/>
    </vehicle>
    <vehicle id="Gosebrede.N.8.65" depart="65.00">
        <route edges="Gosebrede.N.8 EntruperWeg.N.4"/>
    </vehicle>
    <vehicle id="Gosebrede.N.8.66" depart="66.00">
        <route edges="Gosebrede.N.8 EntruperWeg.N.4"/>
    </vehicle>
    <vehicle id="Gosebrede.N.8.67" depart="67.00">
        <route edges="Gosebrede.N.8 EntruperWeg.N.4"/>
    </vehicle>
    <vehicle id="Gosebrede.N.8.68" depart="68.00">
        <route edges="Gosebrede.N.8 EntruperWeg.N.4"/>
    </vehicle>
    <vehicle id="Gosebrede.N.8.69" depart="69.00">
        <route edges="Gosebrede.N.8 EntruperWeg.N.4"/>
    </vehicle>
    <vehicle id="Gosebrede.N.8.70" depart="70.00">
        <route edges="Gosebrede.N.8 EntruperWeg.N.4"/>
    </vehicle>
    <vehicle id="Gosebrede.N.8.71" depart="71.00">
        <route edges="Gosebrede.N.8 EntruperWeg.N.4"/>
    </vehicle>
    <vehicle id="Gosebrede.N.8.72" depart="72.00">
        <route edges="Gosebrede.N.8 EntruperWeg.N.4"/>
    </vehicle>
    <vehicle id="Gosebrede.N.8.73" depart="73.00">
        <route edges="Gosebrede.N.8 EntruperWeg.N.4"/>
    </vehicle>
    <vehicle id="Gosebrede.N.8.74" depart="74.00">
        <route edges="Gosebrede.N.8 EntruperWeg.N.4"/>
    </vehicle>
    <vehicle id="Gosebrede.N.8.75" depart="75.00">
        <route edges="Gosebrede.N.8 EntruperWeg.N.4"/>
    </vehicle>
    <vehicle id="Gosebrede.N.8.76" depart="76.00">
        <route edges="Gosebrede.N.8 EntruperWeg.N.4"/>
    </vehicle>
    <vehicle id="Gosebrede.N.8.77" depart="77.00">
        <route edges="Gosebrede.N.8 EntruperWeg.N.4"/>
    </vehicle>
    <vehicle id="Gosebrede.N.8.78" depart="78.00">
        <route edges="Gosebrede.N.8 EntruperWeg.N.4"/>
    </vehicle>
    <vehicle id="Gosebrede.N.8.79" depart="79.00">
        <route edges="Gosebrede.N.8 EntruperWeg.N.4"/>
    </vehicle>
    <vehicle id="Gosebrede.N.8.80" depart="80.00">
        <route edges="Gosebrede.N.8 EntruperWeg.N.4"/>
    </vehicle>
    <vehicle id="Gosebrede.N.8.81" depart="81.00">
        <route edges="Gosebrede.N.8 EntruperWeg.N.4"/>
    </vehicle>
    <vehicle id="Gosebrede.N.8.82" depart="82.00">
        <route edges="Gosebrede.N.8 EntruperWeg.N.4"/>
    </vehicle>
    <vehicle id="Gosebrede.N.8.83" depart="83.00">
        <route edges="Gosebrede.N.8 EntruperWeg.N.4"/>
    </vehicle>
    <vehicle id="Gosebrede.N.8.84" depart="84.00">
        <route edges="Gosebrede.N.8 EntruperWeg.N.4"/>
    </vehicle>
    <vehicle id="Gosebrede.N.8.85" depart="85.00">
        <route edges="Gosebrede.N.8 EntruperWeg.N.4"/>
    </vehicle>
    <vehicle id="Gosebrede.N.8.86" depart="86.00">
        <route edges="Gosebrede.N.8 EntruperWeg.N.4"/>
    </vehicle>
    <vehicle id="Gosebrede.N.8.87" depart="87.00">
        <route edges="Gosebrede.N.8 EntruperWeg.N.4"/>
    </vehicle>
    <vehicle id="Gosebrede.N.8.88" depart="88.00">
        <route edges="Gosebrede.N.8 EntruperWeg.N.4"/>
    </vehicle>
    <vehicle id="Gosebrede.N.8.89" depart="89.00">
        <route edges="Gosebrede.N.8 EntruperWeg.N.4"/>
    </vehicle>
    <vehicle id="Gosebrede.N.8.90" depart="90.00">
        <route edges="Gosebrede.N.8 EntruperWeg.N.4"/>
    </vehicle>
    <vehicle id="Gosebrede.N.8.91" depart="91.00">
        <route edges="Gosebrede.N.8 EntruperWeg.N.4"/>
    </vehicle>
    <vehicle id="Gosebrede.N.8.92" depart="92.00">
        <route edges="Gosebrede.N.8 EntruperWeg.N.4"/>
    </vehicle>
    <vehicle id="Gosebrede.N.8.93" depart="93.00">
        <route edges="Gosebrede.N.8 EntruperWeg.N.4"/>
    </vehicle>
    <vehicle id="Gosebrede.N.8.94" depart="94.00">
        <route edges="Gosebrede.N.8 EntruperWeg.N.4"/>
    </vehicle>
    <vehicle id="Gosebrede.N.8.95" depart="95.00">
        <route edges="Gosebrede.N.8 EntruperWeg.N.4"/>
    </vehicle>
    <vehicle id="Gosebrede.N.8.96" depart="96.00">
        <route edges="Gosebrede.N.8 EntruperWeg.N.4"/>
    </vehicle>
    <vehicle id="Gosebrede.N.8.97" depart="97.00">
        <route edges="Gosebrede.N.8 EntruperWeg.N.4"/>
    </vehicle>
    <vehicle id="Gosebrede.N.8.98" depart="98.00">
        <route edges="Gosebrede.N.8 EntruperWeg.N.4"/>
    </vehicle>
    <vehicle id="Gosebrede.N.8.99" depart="99.00">
        <route edges="Gosebrede.N.8 EntruperWeg.N.4"/>
    </vehicle>
    <vehicle id="Gosebrede.N.8.100" depart="100.00">
        <route edges="Gosebrede.N.8 EntruperWeg.N.4"/>
    </vehicle>
    <vehicle id="Gosebrede.N.8.101" depart="101.00">
        <route edges="Gosebrede.N.8 EntruperWeg.N.4"/>
    </vehicle>
    <vehicle id="Gosebrede.N.8.102" depart="102.00">
        <route edges="Gosebrede.N.8 EntruperWeg.N.4"/>
    </vehicle>
    <vehicle id="Gosebrede.N.8.103" depart="103.00">
        <route edges="Gosebrede.N.8 EntruperWeg.N.4"/>
    </vehicle>
    <vehicle id="Gosebrede.N.8.104" depart="104.00">
        <route edges="Gosebrede.N.8 EntruperWeg.N.4"/>
    </vehicle>
    <vehicle id="Gosebrede.N.8.105" depart="105.00">
        <route edges="Gosebrede.N.8 EntruperWeg.N.4"/>
    </vehicle>
    <vehicle id="Gosebrede.N.8.106" depart="106.00">
        <route edges="Gosebrede.N.8 EntruperWeg.N.4"/>
    </vehicle>
    <vehicle id="Gosebrede.N.8.107" depart="107.00">
        <route edges="Gosebrede.N.8 EntruperWeg.N.4"/>
    </vehicle>
    <vehicle id="Gosebrede.N.8.108" depart="108.00">
        <route edges="Gosebrede.N.8 EntruperWeg.N.4"/>
    </vehicle>
    <vehicle id="Gosebrede.N.8.109" depart="109.00">
        <route edges="Gosebrede.N.8 EntruperWeg.N.4"/>
    </vehicle>
    <vehicle id="Gosebrede.N.8.110" depart="110.00">
        <route edges="Gosebrede.N.8 EntruperWeg.N.4"/>
    </vehicle>
    <vehicle id="Gosebrede.N.8.111" depart="111.00">
        <route edges="Gosebrede.N.8 EntruperWeg.N.4"/>
    </vehicle>
    <vehicle id="Gosebrede.N.8.112" depart="112.00">
        <route edges="Gosebrede.N.8 EntruperWeg.N.4"/>
    </vehicle>
    <vehicle id="Gosebrede.N.8.113" depart="113.00">
        <route edges="Gosebrede.N.8 EntruperWeg.N.4"/>
    </vehicle>
    <vehicle id="Gosebrede.N.8.114" depart="114.00">
        <route edges="Gosebrede.N.8 EntruperWeg.N.4"/>
    </vehicle>
    <vehicle id="Gosebrede.N.8.115" depart="115.00">
        <route edges="Gosebrede.N.8 EntruperWeg.N.4"/>
    </vehicle>
    <vehicle id="Gosebrede.N.8.116" depart="116.00">
        <route edges="Gosebrede.N.8 EntruperWeg.N.4"/>
    </vehicle>
    <vehicle id="Gosebrede.N.8.117" depart="117.00">
        <route edges="Gosebrede.N.8 EntruperWeg.N.4"/>
    </vehicle>
    <vehicle id="Gosebrede.N.8.118" depart="118.00">
        <route edges="Gosebrede.N.8 EntruperWeg.N.4"/>
    </vehicle>
    <vehicle id="Gosebrede.N.8.119" depart="119.00">
        <route edges="Gosebrede.N.8 EntruperWeg.N.4"/>
    </vehicle>
    <vehicle id="Gosebrede.N.8.120" depart="120.00">
        <route edges="Gosebrede.N.8 EntruperWeg.N.4"/>
    </vehicle>
    <vehicle id="Gosebrede.N.8.121" depart="121.00">
        <route edges="Gosebrede.N.8 EntruperWeg.N.4"/>
    </vehicle>
    <vehicle id="Gosebrede.N.8.122" depart="122.00">
        <route edges="Gosebrede.N.8 EntruperWeg.N.4"/>
    </vehicle>
    <vehicle id="Gosebrede.N.8.123" depart="123.00">
        <route edges="Gosebrede.N.8 EntruperWeg.N.4"/>
    </vehicle>
    <vehicle id="Gosebrede.N.8.124" depart="124.00">
        <route edges="Gosebrede.N.8 EntruperWeg.N.4"/>
    </vehicle>
    <vehicle id="Gosebrede.N.8.125" depart="125.00">
        <route edges="Gosebrede.N.8 EntruperWeg.N.4"/>
    </vehicle>
    <vehicle id="Gosebrede.N.8.126" depart="126.00">
        <route edges="Gosebrede.N.8 EntruperWeg.N.4"/>
    </vehicle>
    <vehicle id="Gosebrede.N.8.127" depart="127.00">
        <route edges="Gosebrede.N.8 EntruperWeg.N.4"/>
    </vehicle>
    <vehicle id="Gosebrede.N.8.128" depart="128.00">
        <route edges="Gosebrede.N.8 EntruperWeg.N.4"/>
    </vehicle>
    <vehicle id="Gosebrede.N.8.129" depart="129.00">
        <route edges="Gosebrede.N.8 EntruperWeg.N.4"/>
    </vehicle>
    <vehicle id="Gosebrede.N.8.130" depart="130.00">
        <route edges="Gosebrede.N.8 EntruperWeg.N.4"/>
    </vehicle>
    <vehicle id="Gosebrede.N.8.131" depart="131.00">
        <route edges="Gosebrede.N.8 EntruperWeg.N.4"/>
    </vehicle>
    <vehicle id="Gosebrede.N.8.132" depart="132.00">
        <route edges="Gosebrede.N.8 EntruperWeg.N.4"/>
    </vehicle>
    <vehicle id="Gosebrede.N.8.133" depart="133.00">
        <route edges="Gosebrede.N.8 EntruperWeg.N.4"/>
    </vehicle>
    <vehicle id="Gosebrede.N.8.134" depart="134.00">
        <route edges="Gosebrede.N.8 EntruperWeg.N.4"/>
    </vehicle>
    <vehicle id="Gosebrede.N.8.135" depart="135.00">
        <route edges="Gosebrede.N.8 EntruperWeg.N.4"/>
    </vehicle>
    <vehicle id="Gosebrede.N.8.136" depart="136.00">
        <route edges="Gosebrede.N.8 EntruperWeg.N.4"/>
    </vehicle>
    <vehicle id="Gosebrede.N.8.137" depart="137.00">
        <route edges="Gosebrede.N.8 EntruperWeg.N.4"/>
    </vehicle>
    <vehicle id="Gosebrede.N.8.138" depart="138.00">
        <route edges="Gosebrede.N.8 EntruperWeg.N.4"/>
    </vehicle>
    <vehicle id="Gosebrede.N.8.139" depart="139.00">
        <route edges="Gosebrede.N.8 EntruperWeg.N.4"/>
    </vehicle>
    <vehicle id="Gosebrede.N.8.140" depart="140.00">
        <route edges="Gosebrede.N.8 EntruperWeg.N.4"/>
    </vehicle>
    <vehicle id="Gosebrede.N.8.141" depart="141.00">
        <route edges="Gosebrede.N.8 EntruperWeg.N.4"/>
    </vehicle>
    <vehicle id="Gosebrede.N.8.142" depart="142.00">
        <route edges="Gosebrede.N.8 EntruperWeg.N.4"/>
    </vehicle>
    <vehicle id="Gosebrede.N.8.143" depart="143.00">
        <route edges="Gosebrede.N.8 EntruperWeg.N.4"/>
    </vehicle>
    <vehicle id="Gosebrede.N.8.144" depart="144.00">
        <route edges="Gosebrede.N.8 EntruperWeg.N.4"/>
    </vehicle>
    <vehicle id="Gosebrede.N.8.145" depart="145.00">
        <route edges="Gosebrede.N.8 EntruperWeg.N.4"/>
    </vehicle>
    <vehicle id="Gosebrede.N.8.146" depart="146.00">
        <route edges="Gosebrede.N.8 EntruperWeg.N.4"/>
    </vehicle>
    <vehicle id="Gosebrede.N.8.147" depart="147.00">
        <route edges="Gosebrede.N.8 EntruperWeg.N.4"/>
    </vehicle>
    <vehicle id="Gosebrede.N.8.148" depart="148.00">
        <route edges="Gosebrede.N.8 EntruperWeg.N.4"/>
    </vehicle>
    <vehicle id="Gosebrede.N.8.149" depart="149.00">
        <route edges="Gosebrede.N.8 EntruperWeg.N.4"/>
    </vehicle>
    <vehicle id="Gosebrede.N.8.150" depart="150.00">
        <route edges="Gosebrede.N.8 EntruperWeg.N.4"/>
    </vehicle>
    <vehicle id="Gosebrede.N.8.151" depart="151.00">
        <route edges="Gosebrede.N.8 EntruperWeg.N.4"/>
    </vehicle>
    <vehicle id="Gosebrede.N.8.152" depart="152.00">
        <route edges="Gosebrede.N.8 EntruperWeg.N.4"/>
    </vehicle>
    <vehicle id="Gosebrede.N.8.153" depart="153.00">
        <route edges="Gosebrede.N.8 EntruperWeg.N.4"/>
    </vehicle>
    <vehicle id="Gosebrede.N.8.154" depart="154.00">
        <route edges="Gosebrede.N.8 EntruperWeg.N.4"/>
    </vehicle>
    <vehicle id="Gosebrede.N.8.155" depart="155.00">
        <route edges="Gosebrede.N.8 EntruperWeg.N.4"/>
    </vehicle>
    <vehicle id="Gosebrede.N.8.156" depart="156.00">
        <route edges="Gosebrede.N.8 EntruperWeg.N.4"/>
    </vehicle>
    <vehicle id="Gosebrede.N.8.157" depart="157.00">
        <route edges="Gosebrede.N.8 EntruperWeg.N.4"/>
    </vehicle>
    <vehicle id="Gosebrede.N.8.158" depart="158.00">
        <route edges="Gosebrede.N.8 EntruperWeg.N.4"/>
    </vehicle>
    <vehicle id="Gosebrede.N.8.159" depart="159.00">
        <route edges="Gosebrede.N.8 EntruperWeg.N.4"/>
    </vehicle>
    <vehicle id="Gosebrede.N.8.160" depart="160.00">
        <route edges="Gosebrede.N.8 EntruperWeg.N.4"/>
    </vehicle>
    <vehicle id="Gosebrede.N.8.161" depart="161.00">
        <route edges="Gosebrede.N.8 EntruperWeg.N.4"/>
    </vehicle>
    <vehicle id="Gosebrede.N.8.162" depart="162.00">
        <route edges="Gosebrede.N.8 EntruperWeg.N.4"/>
    </vehicle>
    <vehicle id="Gosebrede.N.8.163" depart="163.00">
        <route edges="Gosebrede.N.8 EntruperWeg.N.4"/>
    </vehicle>
    <vehicle id="Gosebrede.N.8.164" depart="164.00">
        <route edges="Gosebrede.N.8 EntruperWeg.N.4"/>
    </vehicle>
    <vehicle id="Gosebrede.N.8.165" depart="165.00">
        <route edges="Gosebrede.N.8 EntruperWeg.N.4"/>
    </vehicle>
    <vehicle id="Gosebrede.N.8.166" depart="166.00">
        <route edges="Gosebrede.N.8 EntruperWeg.N.4"/>
    </vehicle>
    <vehicle id="Gosebrede.N.8.167" depart="167.00">
        <route edges="Gosebrede.N.8 EntruperWeg.N.4"/>
    </vehicle>
    <vehicle id="Gosebrede.N.8.168" depart="168.00">
        <route edges="Gosebrede.N.8 EntruperWeg.N.4"/>
    </vehicle>
    <vehicle id="Gosebrede.N.8.169" depart="169.00">
        <route edges="Gosebrede.N.8 EntruperWeg.N.4"/>
    </vehicle>
    <vehicle id="Gosebrede.N.8.170" depart="170.00">
        <route edges="Gosebrede.N.8 EntruperWeg.N.4"/>
    </vehicle>
    <vehicle id="Gosebrede.N.8.171" depart="171.00">
        <route edges="Gosebrede.N.8 EntruperWeg.N.4"/>
    </vehicle>
    <vehicle id="Gosebrede.N.8.172" depart="172.00">
        <route edges="Gosebrede.N.8 EntruperWeg.N.4"/>
    </vehicle>
    <vehicle id="Gosebrede.N.8.173" depart="173.00">
        <route edges="Gosebrede.N.8 EntruperWeg.N.4"/>
    </vehicle>
    <vehicle id="Gosebrede.N.8.174" depart="174.00">
        <route edges="Gosebrede.N.8 EntruperWeg.N.4"/>
    </vehicle>
    <vehicle id="Gosebrede.N.8.175" depart="175.00">
        <route edges="Gosebrede.N.8 EntruperWeg.N.4"/>
    </vehicle>
    <vehicle id="Gosebrede.N.8.176" depart="176.00">
        <route edges="Gosebrede.N.8 EntruperWeg.N.4"/>
    </vehicle>
    <vehicle id="Gosebrede.N.8.177" depart="177.00">
        <route edges="Gosebrede.N.8 EntruperWeg.N.4"/>
    </vehicle>
    <vehicle id="Gosebrede.N.8.178" depart="178.00">
        <route edges="Gosebrede.N.8 EntruperWeg.N.4"/>
    </vehicle>
    <vehicle id="Gosebrede.N.8.179" depart="179.00">
        <route edges="Gosebrede.N.8 EntruperWeg.N.4"/>
    </vehicle>
    <vehicle id="Gosebrede.N.8.180" depart="180.00">
        <route edges="Gosebrede.N.8 EntruperWeg.N.4"/>
    </vehicle>
    <vehicle id="Gosebrede.N.8.181" depart="181.00">
        <route edges="Gosebrede.N.8 EntruperWeg.N.4"/>
    </vehicle>
    <vehicle id="Gosebrede.N.8.182" depart="182.00">
        <route edges="Gosebrede.N.8 EntruperWeg.N.4"/>
    </vehicle>
    <vehicle id="Gosebrede.N.8.183" depart="183.00">
        <route edges="Gosebrede.N.8 EntruperWeg.N.4"/>
    </vehicle>
    <vehicle id="Gosebrede.N.8.184" depart="184.00">
        <route edges="Gosebrede.N.8 EntruperWeg.N.4"/>
    </vehicle>
    <vehicle id="Gosebrede.N.8.185" depart="185.00">
        <route edges="Gosebrede.N.8 EntruperWeg.N.4"/>
    </vehicle>
    <vehicle id="Gosebrede.N.8.186" depart="186.00">
        <route edges="Gosebrede.N.8 EntruperWeg.N.4"/>
    </vehicle>
    <vehicle id="Gosebrede.N.8.187" depart="187.00">
        <route edges="Gosebrede.N.8 EntruperWeg.N.4"/>
    </vehicle>
    <vehicle id="Gosebrede.N.8.188" depart="188.00">
        <route edges="Gosebrede.N.8 EntruperWeg.N.4"/>
    </vehicle>
    <vehicle id="Gosebrede.N.8.189" depart="189.00">
        <route edges="Gosebrede.N.8 EntruperWeg.N.4"/>
    </vehicle>
    <vehicle id="Gosebrede.N.8.190" depart="190.00">
        <route edges="Gosebrede.N.8 EntruperWeg.N.4"/>
    </vehicle>
    <vehicle id="Gosebrede.N.8.191" depart="191.00">
        <route edges="Gosebrede.N.8 EntruperWeg.N.4"/>
    </vehicle>
    <vehicle id="Gosebrede.N.8.192" depart="192.00">
        <route edges="Gosebrede.N.8 EntruperWeg.N.4"/>
    </vehicle>
    <vehicle id="Gosebrede.N.8.193" depart="193.00">
        <route edges="Gosebrede.N.8 EntruperWeg.N.4"/>
    </vehicle>
    <vehicle id="Gosebrede.N.8.194" depart="194.00">
        <route edges="Gosebrede.N.8 EntruperWeg.N.4"/>
    </vehicle>
    <vehicle id="Gosebrede.N.8.195" depart="195.00">
        <route edges="Gosebrede.N.8 EntruperWeg.N.4"/>
    </vehicle>
    <vehicle id="Gosebrede.N.8.196" depart="196.00">
        <route edges="Gosebrede.N.8 EntruperWeg.N.4"/>
    </vehicle>
    <vehicle id="Gosebrede.N.8.197" depart="197.00">
        <route edges="Gosebrede.N.8 EntruperWeg.N.4"/>
    </vehicle>
    <vehicle id="Gosebrede.N.8.198" depart="198.00">
        <route edges="Gosebrede.N.8 EntruperWeg.N.4"/>
    </vehicle>
    <vehicle id="Gosebrede.N.8.199" depart="199.00">
        <route edges="Gosebrede.N.8 EntruperWeg.N.4"/>
    </vehicle>
    <vehicle id="Gosebrede.N.8.200" depart="200.00">
        <route edges="Gosebrede.N.8 EntruperWeg.N.4"/>
    </vehicle>
    <vehicle id="Gosebrede.N.8.201" depart="201.00">
        <route edges="Gosebrede.N.8 EntruperWeg.N.4"/>
    </vehicle>
    <vehicle id="Gosebrede.N.8.202" depart="202.00">
        <route edges="Gosebrede.N.8 EntruperWeg.N.4"/>
    </vehicle>
    <vehicle id="Gosebrede.N.8.203" depart="203.00">
        <route edges="Gosebrede.N.8 EntruperWeg.N.4"/>
    </vehicle>
    <vehicle id="Gosebrede.N.8.204" depart="204.00">
        <route edges="Gosebrede.N.8 EntruperWeg.N.4"/>
    </vehicle>
    <vehicle id="Gosebrede.N.8.205" depart="205.00">
        <route edges="Gosebrede.N.8 EntruperWeg.N.4"/>
    </vehicle>
    <vehicle id="Gosebrede.N.8.206" depart="206.00">
        <route edges="Gosebrede.N.8 EntruperWeg.N.4"/>
    </vehicle>
    <vehicle id="Gosebrede.N.8.207" depart="207.00">
        <route edges="Gosebrede.N.8 EntruperWeg.N.4"/>
    </vehicle>
    <vehicle id="Gosebrede.N.8.208" depart="208.00">
        <route edges="Gosebrede.N.8 EntruperWeg.N.4"/>
    </vehicle>
    <vehicle id="Gosebrede.N.8.209" depart="209.00">
        <route edges="Gosebrede.N.8 EntruperWeg.N.4"/>
    </vehicle>
    <vehicle id="Gosebrede.N.8.210" depart="210.00">
        <route edges="Gosebrede.N.8 EntruperWeg.N.4"/>
    </vehicle>
    <vehicle id="Gosebrede.N.8.211" depart="211.00">
        <route edges="Gosebrede.N.8 EntruperWeg.N.4"/>
    </vehicle>
    <vehicle id="Gosebrede.N.8.212" depart="212.00">
        <route edges="Gosebrede.N.8 EntruperWeg.N.4"/>
    </vehicle>
    <vehicle id="Gosebrede.N.8.213" depart="213.00">
        <route edges="Gosebrede.N.8 EntruperWeg.N.4"/>
    </vehicle>
    <vehicle id="Gosebrede.N.8.214" depart="214.00">
        <route edges="Gosebrede.N.8 EntruperWeg.N.4"/>
    </vehicle>
    <vehicle id="Gosebrede.N.8.215" depart="215.00">
        <route edges="Gosebrede.N.8 EntruperWeg.N.4"/>
    </vehicle>
    <vehicle id="Gosebrede.N.8.216" depart="216.00">
        <route edges="Gosebrede.N.8 EntruperWeg.N.4"/>
    </vehicle>
    <vehicle id="Gosebrede.N.8.217" depart="217.00">
        <route edges="Gosebrede.N.8 EntruperWeg.N.4"/>
    </vehicle>
    <vehicle id="Gosebrede.N.8.218" depart="218.00">
        <route edges="Gosebrede.N.8 EntruperWeg.N.4"/>
    </vehicle>
    <vehicle id="Gosebrede.N.8.219" depart="219.00">
        <route edges="Gosebrede.N.8 EntruperWeg.N.4"/>
    </vehicle>
    <vehicle id="Gosebrede.N.8.220" depart="220.00">
        <route edges="Gosebrede.N.8 EntruperWeg.N.4"/>
    </vehicle>
    <vehicle id="Gosebrede.N.8.221" depart="221.00">
        <route edges="Gosebrede.N.8 EntruperWeg.N.4"/>
    </vehicle>
    <vehicle id="Gosebrede.N.8.222" depart="222.00">
        <route edges="Gosebrede.N.8 EntruperWeg.N.4"/>
    </vehicle>
    <vehicle id="Gosebrede.N.8.223" depart="223.00">
        <route edges="Gosebrede.N.8 EntruperWeg.N.4"/>
    </vehicle>
    <vehicle id="Gosebrede.N.8.224" depart="224.00">
        <route edges="Gosebrede.N.8 EntruperWeg.N.4"/>
    </vehicle>
    <vehicle id="Gosebrede.N.8.225" depart="225.00">
        <route edges="Gosebrede.N.8 EntruperWeg.N.4"/>
    </vehicle>
    <vehicle id="Gosebrede.N.8.226" depart="226.00">
        <route edges="Gosebrede.N.8 EntruperWeg.N.4"/>
    </vehicle>
    <vehicle id="Gosebrede.N.8.227" depart="227.00">
        <route edges="Gosebrede.N.8 EntruperWeg.N.4"/>
    </vehicle>
    <vehicle id="Gosebrede.N.8.228" depart="228.00">
        <route edges="Gosebrede.N.8 EntruperWeg.N.4"/>
    </vehicle>
    <vehicle id="Gosebrede.N.8.229" depart="229.00">
        <route edges="Gosebrede.N.8 EntruperWeg.N.4"/>
    </vehicle>
    <vehicle id="Gosebrede.N.8.230" depart="230.00">
        <route edges="Gosebrede.N.8 EntruperWeg.N.4"/>
    </vehicle>
    <vehicle id="Gosebrede.N.8.231" depart="231.00">
        <route edges="Gosebrede.N.8 EntruperWeg.N.4"/>
    </vehicle>
    <vehicle id="Gosebrede.N.8.232" depart="232.00">
        <route edges="Gosebrede.N.8 EntruperWeg.N.4"/>
    </vehicle>
    <vehicle id="Gosebrede.N.8.233" depart="233.00">
        <route edges="Gosebrede.N.8 EntruperWeg.N.4"/>
    </vehicle>
    <vehicle id="Gosebrede.N.8.234" depart="234.00">
        <route edges="Gosebrede.N.8 EntruperWeg.N.4"/>
    </vehicle>
    <vehicle id="Gosebrede.N.8.235" depart="235.00">
        <route edges="Gosebrede.N.8 EntruperWeg.N.4"/>
    </vehicle>
    <vehicle id="Gosebrede.N.8.236" depart="236.00">
        <route edges="Gosebrede.N.8 EntruperWeg.N.4"/>
    </vehicle>
    <vehicle id="Gosebrede.N.8.237" depart="237.00">
        <route edges="Gosebrede.N.8 EntruperWeg.N.4"/>
    </vehicle>