<?xml version="1.0" encoding="UTF-8"?>
<!--
Copyright 2021 Arthur Müller
arthur.mueller@iosb-ina.fraunhofer.de
This file is part of LemgoRL.

LemgoRL is free software: you can redistribute it and/or modify
it under the terms of the GNU General Public License as published by
the Free Software Foundation, either version 3 of the License, or
(at your option) any later version.

LemgoRL is distributed in the hope that it will be useful,
but WITHOUT ANY WARRANTY; without even the implied warranty of
MERCHANTABILITY or FITNESS FOR A PARTICULAR PURPOSE.  See the
GNU General Public License for more details.

You should have received a copy of the GNU General Public License
along with LemgoRL.  If not, see <http://www.gnu.org/licenses/>.
-->

<routes xmlns:xsi="http://www.w3.org/2001/XMLSchema-instance" xsi:noNamespaceSchemaLocation="http://sumo.dlr.de/xsd/routes_file.xsd">
    <vType id="truck" vClass="truck" speedFactor="normc(1,0.1,0.2,1.3)"/>
	<vType id="trailer" vClass="trailer" speedDev="0.1" color="orange"/>
    <vType id="motorcycle" vClass="motorcycle" speedDev="0.1" color="orange"/>
	<!-- <vType id="car" vClass="passenger" speedFactor="normc(1,0.1,0.2,2)"/> -->
    <vType id="bicycle" vClass="bicycle" speedDev="0.1" color="orange"/>
	
	<vTypeDistribution id="car">
        <vType id="passenger_dist0" sigma="0.549" length="4.301" accel="2.788" decel="4.486" minGap="2.305" vClass="passenger" carFollowModel="Krauss"/>
        <vType id="passenger_dist1" sigma="0.613" length="4.166" accel="2.861" decel="4.468" minGap="2.736" vClass="passenger" carFollowModel="Krauss"/>
        <vType id="passenger_dist2" sigma="0.801" length="4.790" accel="2.947" decel="4.453" minGap="2.796" vClass="passenger" carFollowModel="Krauss"/>
        <vType id="passenger_dist3" sigma="0.794" length="4.474" accel="2.501" decel="4.406" minGap="2.310" vClass="passenger" carFollowModel="Krauss"/>
        <vType id="passenger_dist4" sigma="0.573" length="4.344" accel="2.697" decel="4.407" minGap="2.562" vClass="passenger" carFollowModel="Krauss"/>
        <vType id="passenger_dist5" sigma="0.414" length="4.588" accel="2.666" decel="4.631" minGap="2.393" vClass="passenger" carFollowModel="Krauss"/>
        <vType id="passenger_dist6" sigma="0.529" length="4.684" accel="2.567" decel="4.587" minGap="2.635" vClass="passenger" carFollowModel="Krauss"/>
        <vType id="passenger_dist7" sigma="0.277" length="4.164" accel="2.342" decel="4.588" minGap="2.500" vClass="passenger" carFollowModel="Krauss"/>
        <vType id="passenger_dist8" sigma="0.308" length="4.444" accel="2.747" decel="4.602" minGap="2.430" vClass="passenger" carFollowModel="Krauss"/>
        <vType id="passenger_dist9" sigma="0.223" length="4.505" accel="2.586" decel="4.483" minGap="2.550" vClass="passenger" carFollowModel="Krauss"/>
        <vType id="passenger_dist10" sigma="0.351" length="4.356" accel="2.474" decel="4.433" minGap="2.381" vClass="passenger" carFollowModel="Krauss"/>
        <vType id="passenger_dist11" sigma="0.101" length="4.128" accel="2.515" decel="4.674" minGap="2.456" vClass="passenger" carFollowModel="Krauss"/>
        <vType id="passenger_dist12" sigma="0.630" length="4.157" accel="2.563" decel="4.620" minGap="2.449" vClass="passenger" carFollowModel="Krauss"/>
        <vType id="passenger_dist13" sigma="0.665" length="4.207" accel="2.572" decel="4.430" minGap="2.518" vClass="passenger" carFollowModel="Krauss"/>
        <vType id="passenger_dist14" sigma="0.644" length="4.394" accel="2.573" decel="4.487" minGap="2.568" vClass="passenger" carFollowModel="Krauss"/>
        <vType id="passenger_dist15" sigma="0.332" length="4.457" accel="2.326" decel="4.503" minGap="2.323" vClass="passenger" carFollowModel="Krauss"/>
        <vType id="passenger_dist16" sigma="0.600" length="4.297" accel="2.733" decel="4.543" minGap="2.433" vClass="passenger" carFollowModel="Krauss"/>
        <vType id="passenger_dist17" sigma="0.620" length="4.042" accel="2.489" decel="4.542" minGap="2.314" vClass="passenger" carFollowModel="Krauss"/>
        <vType id="passenger_dist18" sigma="0.447" length="4.786" accel="2.716" decel="4.401" minGap="2.594" vClass="passenger" carFollowModel="Krauss"/>
        <vType id="passenger_dist19" sigma="0.563" length="4.358" accel="2.573" decel="4.532" minGap="2.685" vClass="passenger" carFollowModel="Krauss"/>
        <vType id="passenger_dist20" sigma="0.475" length="4.705" accel="2.806" decel="4.431" minGap="2.673" vClass="passenger" carFollowModel="Krauss"/>
        <vType id="passenger_dist21" sigma="0.404" length="4.315" accel="2.709" decel="4.555" minGap="2.480" vClass="passenger" carFollowModel="Krauss"/>
        <vType id="passenger_dist22" sigma="0.631" length="3.966" accel="2.767" decel="4.540" minGap="2.716" vClass="passenger" carFollowModel="Krauss"/>
        <vType id="passenger_dist23" sigma="0.262" length="4.514" accel="2.656" decel="4.453" minGap="2.547" vClass="passenger" carFollowModel="Krauss"/>
        <vType id="passenger_dist24" sigma="0.752" length="4.350" accel="2.663" decel="4.554" minGap="2.389" vClass="passenger" carFollowModel="Krauss"/>
        <vType id="passenger_dist25" sigma="0.452" length="4.179" accel="2.870" decel="4.424" minGap="2.443" vClass="passenger" carFollowModel="Krauss"/>
        <vType id="passenger_dist26" sigma="0.599" length="4.375" accel="2.530" decel="4.561" minGap="2.569" vClass="passenger" carFollowModel="Krauss"/>
        <vType id="passenger_dist27" sigma="0.576" length="4.233" accel="2.541" decel="4.499" minGap="2.874" vClass="passenger" carFollowModel="Krauss"/>
        <vType id="passenger_dist28" sigma="0.265" length="4.406" accel="2.544" decel="4.673" minGap="2.652" vClass="passenger" carFollowModel="Krauss"/>
        <vType id="passenger_dist29" sigma="0.751" length="4.388" accel="2.420" decel="4.595" minGap="2.560" vClass="passenger" carFollowModel="Krauss"/>
        <vType id="passenger_dist30" sigma="0.297" length="4.285" accel="2.612" decel="4.538" minGap="2.431" vClass="passenger" carFollowModel="Krauss"/>
        <vType id="passenger_dist31" sigma="0.464" length="4.112" accel="2.671" decel="4.445" minGap="2.540" vClass="passenger" carFollowModel="Krauss"/>
        <vType id="passenger_dist32" sigma="0.377" length="4.377" accel="2.469" decel="4.480" minGap="2.487" vClass="passenger" carFollowModel="Krauss"/>
        <vType id="passenger_dist33" sigma="0.543" length="4.317" accel="2.426" decel="4.427" minGap="2.644" vClass="passenger" carFollowModel="Krauss"/>
        <vType id="passenger_dist34" sigma="0.407" length="4.635" accel="2.759" decel="4.514" minGap="2.794" vClass="passenger" carFollowModel="Krauss"/>
        <vType id="passenger_dist35" sigma="0.210" length="4.496" accel="2.450" decel="4.630" minGap="2.580" vClass="passenger" carFollowModel="Krauss"/>
        <vType id="passenger_dist36" sigma="0.675" length="4.701" accel="2.711" decel="4.480" minGap="2.503" vClass="passenger" carFollowModel="Krauss"/>
        <vType id="passenger_dist37" sigma="0.772" length="4.526" accel="2.619" decel="4.459" minGap="2.673" vClass="passenger" carFollowModel="Krauss"/>
        <vType id="passenger_dist38" sigma="0.469" length="4.357" accel="2.710" decel="4.548" minGap="2.484" vClass="passenger" carFollowModel="Krauss"/>
        <vType id="passenger_dist39" sigma="0.685" length="4.385" accel="2.465" decel="4.547" minGap="2.553" vClass="passenger" carFollowModel="Krauss"/>
        <vType id="passenger_dist40" sigma="0.518" length="4.526" accel="2.672" decel="4.452" minGap="2.380" vClass="passenger" carFollowModel="Krauss"/>
        <vType id="passenger_dist41" sigma="0.552" length="4.262" accel="2.585" decel="4.672" minGap="2.417" vClass="passenger" carFollowModel="Krauss"/>
        <vType id="passenger_dist42" sigma="0.364" length="4.416" accel="2.658" decel="4.624" minGap="2.800" vClass="passenger" carFollowModel="Krauss"/>
        <vType id="passenger_dist43" sigma="0.481" length="4.690" accel="2.738" decel="4.515" minGap="2.730" vClass="passenger" carFollowModel="Krauss"/>
        <vType id="passenger_dist44" sigma="0.629" length="4.414" accel="2.495" decel="4.553" minGap="2.373" vClass="passenger" carFollowModel="Krauss"/>
        <vType id="passenger_dist45" sigma="0.565" length="4.445" accel="2.364" decel="4.564" minGap="2.763" vClass="passenger" carFollowModel="Krauss"/>
        <vType id="passenger_dist46" sigma="0.444" length="4.953" accel="2.476" decel="4.599" minGap="2.417" vClass="passenger" carFollowModel="Krauss"/>
        <vType id="passenger_dist47" sigma="0.716" length="4.704" accel="2.598" decel="4.459" minGap="2.771" vClass="passenger" carFollowModel="Krauss"/>
        <vType id="passenger_dist48" sigma="0.581" length="4.371" accel="2.731" decel="4.540" minGap="2.497" vClass="passenger" carFollowModel="Krauss"/>
        <vType id="passenger_dist49" sigma="0.422" length="4.810" accel="2.457" decel="4.620" minGap="2.477" vClass="passenger" carFollowModel="Krauss"/>
        <vType id="passenger_dist50" sigma="0.432" length="4.425" accel="2.474" decel="4.617" minGap="2.612" vClass="passenger" carFollowModel="Krauss"/>
        <vType id="passenger_dist51" sigma="0.733" length="4.330" accel="2.637" decel="4.510" minGap="2.485" vClass="passenger" carFollowModel="Krauss"/>
        <vType id="passenger_dist52" sigma="0.727" length="4.551" accel="2.621" decel="4.647" minGap="2.515" vClass="passenger" carFollowModel="Krauss"/>
        <vType id="passenger_dist53" sigma="0.394" length="4.396" accel="2.615" decel="4.520" minGap="2.477" vClass="passenger" carFollowModel="Krauss"/>
        <vType id="passenger_dist54" sigma="0.147" length="4.432" accel="2.814" decel="4.587" minGap="2.813" vClass="passenger" carFollowModel="Krauss"/>
        <vType id="passenger_dist55" sigma="0.827" length="4.081" accel="2.778" decel="4.615" minGap="2.516" vClass="passenger" carFollowModel="Krauss"/>
        <vType id="passenger_dist56" sigma="0.629" length="4.463" accel="2.345" decel="4.410" minGap="2.847" vClass="passenger" carFollowModel="Krauss"/>
        <vType id="passenger_dist57" sigma="0.440" length="4.712" accel="2.712" decel="4.615" minGap="2.387" vClass="passenger" carFollowModel="Krauss"/>
        <vType id="passenger_dist58" sigma="0.241" length="4.509" accel="2.851" decel="4.443" minGap="2.372" vClass="passenger" carFollowModel="Krauss"/>
        <vType id="passenger_dist59" sigma="0.583" length="4.232" accel="2.594" decel="4.529" minGap="2.322" vClass="passenger" carFollowModel="Krauss"/>
        <vType id="passenger_dist60" sigma="0.750" length="4.388" accel="2.326" decel="4.528" minGap="2.624" vClass="passenger" carFollowModel="Krauss"/>
        <vType id="passenger_dist61" sigma="0.719" length="4.738" accel="2.942" decel="4.536" minGap="2.452" vClass="passenger" carFollowModel="Krauss"/>
        <vType id="passenger_dist62" sigma="0.588" length="4.122" accel="2.504" decel="4.737" minGap="2.622" vClass="passenger" carFollowModel="Krauss"/>
        <vType id="passenger_dist63" sigma="0.653" length="4.615" accel="2.911" decel="4.469" minGap="2.453" vClass="passenger" carFollowModel="Krauss"/>
        <vType id="passenger_dist64" sigma="0.642" length="4.225" accel="2.786" decel="4.449" minGap="2.385" vClass="passenger" carFollowModel="Krauss"/>
        <vType id="passenger_dist65" sigma="0.368" length="4.171" accel="2.771" decel="4.632" minGap="2.598" vClass="passenger" carFollowModel="Krauss"/>
        <vType id="passenger_dist66" sigma="0.468" length="4.394" accel="2.540" decel="4.460" minGap="2.379" vClass="passenger" carFollowModel="Krauss"/>
        <vType id="passenger_dist67" sigma="0.719" length="4.556" accel="2.626" decel="4.565" minGap="2.372" vClass="passenger" carFollowModel="Krauss"/>
        <vType id="passenger_dist68" sigma="0.689" length="4.260" accel="2.522" decel="4.528" minGap="2.367" vClass="passenger" carFollowModel="Krauss"/>
        <vType id="passenger_dist69" sigma="0.675" length="4.561" accel="2.747" decel="4.507" minGap="2.488" vClass="passenger" carFollowModel="Krauss"/>
        <vType id="passenger_dist70" sigma="0.625" length="4.033" accel="2.446" decel="4.551" minGap="2.519" vClass="passenger" carFollowModel="Krauss"/>
        <vType id="passenger_dist71" sigma="0.540" length="4.870" accel="2.768" decel="4.548" minGap="2.478" vClass="passenger" carFollowModel="Krauss"/>
        <vType id="passenger_dist72" sigma="0.399" length="4.368" accel="2.544" decel="4.475" minGap="2.741" vClass="passenger" carFollowModel="Krauss"/>
        <vType id="passenger_dist73" sigma="0.568" length="4.333" accel="2.487" decel="4.527" minGap="2.534" vClass="passenger" carFollowModel="Krauss"/>
        <vType id="passenger_dist74" sigma="0.569" length="4.209" accel="2.699" decel="4.641" minGap="2.550" vClass="passenger" carFollowModel="Krauss"/>
        <vType id="passenger_dist75" sigma="0.403" length="4.501" accel="2.819" decel="4.480" minGap="2.547" vClass="passenger" carFollowModel="Krauss"/>
        <vType id="passenger_dist76" sigma="0.608" length="4.358" accel="2.480" decel="4.610" minGap="2.582" vClass="passenger" carFollowModel="Krauss"/>
        <vType id="passenger_dist77" sigma="0.608" length="4.373" accel="2.674" decel="4.483" minGap="2.619" vClass="passenger" carFollowModel="Krauss"/>
        <vType id="passenger_dist78" sigma="0.560" length="4.310" accel="2.514" decel="4.438" minGap="2.320" vClass="passenger" carFollowModel="Krauss"/>
        <vType id="passenger_dist79" sigma="0.640" length="4.461" accel="2.693" decel="4.621" minGap="2.656" vClass="passenger" carFollowModel="Krauss"/>
        <vType id="passenger_dist80" sigma="0.564" length="4.348" accel="2.538" decel="4.607" minGap="2.931" vClass="passenger" carFollowModel="Krauss"/>
        <vType id="passenger_dist81" sigma="0.642" length="4.249" accel="2.710" decel="4.532" minGap="2.685" vClass="passenger" carFollowModel="Krauss"/>
        <vType id="passenger_dist82" sigma="0.864" length="4.169" accel="2.646" decel="4.657" minGap="2.551" vClass="passenger" carFollowModel="Krauss"/>
        <vType id="passenger_dist83" sigma="0.234" length="4.307" accel="2.368" decel="4.441" minGap="2.817" vClass="passenger" carFollowModel="Krauss"/>
        <vType id="passenger_dist84" sigma="0.505" length="4.490" accel="2.785" decel="4.653" minGap="2.383" vClass="passenger" carFollowModel="Krauss"/>
        <vType id="passenger_dist85" sigma="0.312" length="4.402" accel="2.485" decel="4.478" minGap="2.313" vClass="passenger" carFollowModel="Krauss"/>
        <vType id="passenger_dist86" sigma="0.374" length="4.262" accel="2.811" decel="4.543" minGap="2.724" vClass="passenger" carFollowModel="Krauss"/>
        <vType id="passenger_dist87" sigma="0.363" length="4.211" accel="2.531" decel="4.609" minGap="2.826" vClass="passenger" carFollowModel="Krauss"/>
        <vType id="passenger_dist88" sigma="0.634" length="4.487" accel="2.544" decel="4.430" minGap="2.799" vClass="passenger" carFollowModel="Krauss"/>
        <vType id="passenger_dist89" sigma="0.391" length="4.161" accel="2.679" decel="4.475" minGap="2.627" vClass="passenger" carFollowModel="Krauss"/>
        <vType id="passenger_dist90" sigma="0.464" length="4.479" accel="2.580" decel="4.577" minGap="2.517" vClass="passenger" carFollowModel="Krauss"/>
        <vType id="passenger_dist91" sigma="0.699" length="4.582" accel="2.586" decel="4.457" minGap="2.620" vClass="passenger" carFollowModel="Krauss"/>
        <vType id="passenger_dist92" sigma="0.261" length="4.688" accel="2.726" decel="4.562" minGap="2.326" vClass="passenger" carFollowModel="Krauss"/>
        <vType id="passenger_dist93" sigma="0.447" length="4.092" accel="2.567" decel="4.623" minGap="2.326" vClass="passenger" carFollowModel="Krauss"/>
        <vType id="passenger_dist94" sigma="0.872" length="3.979" accel="2.587" decel="4.403" minGap="2.755" vClass="passenger" carFollowModel="Krauss"/>
        <vType id="passenger_dist95" sigma="0.665" length="4.213" accel="2.546" decel="4.433" minGap="2.483" vClass="passenger" carFollowModel="Krauss"/>
        <vType id="passenger_dist96" sigma="0.845" length="4.297" accel="2.553" decel="4.424" minGap="2.562" vClass="passenger" carFollowModel="Krauss"/>
        <vType id="passenger_dist97" sigma="0.518" length="4.329" accel="2.713" decel="4.607" minGap="2.852" vClass="passenger" carFollowModel="Krauss"/>
        <vType id="passenger_dist98" sigma="0.440" length="4.485" accel="2.570" decel="4.620" minGap="2.479" vClass="passenger" carFollowModel="Krauss"/>
        <vType id="passenger_dist99" sigma="0.520" length="4.507" accel="2.432" decel="4.594" minGap="2.721" vClass="passenger" carFollowModel="Krauss"/>
    </vTypeDistribution>
	
</routes>
